/*--------------------------------*- C++ -*----------------------------------*\
| =========                 |                                                 |
| \\      /  F ield         | OpenFOAM: The Open Source CFD Toolbox           |
|  \\    /   O peration     | Version:  2412                                  |
|   \\  /    A nd           | Website:  www.openfoam.com                      |
|    \\/     M anipulation  |                                                 |
\*---------------------------------------------------------------------------*/
FoamFile
{
    version     2.0;
    format      ascii;
    arch        "LSB;label=32;scalar=64";
    class       polyBoundaryMesh;
    location    "constant/polyMesh";
    object      boundary;
}
// * * * * * * * * * * * * * * * * * * * * * * * * * * * * * * * * * * * * * //

22
(
    left_1
    {
        type            wall;
        inGroups        1(wall);
        nFaces          0;
        startFace       6896;
    }
    frontAndBack_1
    {
        type            empty;
        inGroups        1(empty);
        nFaces          1252;
        startFace       6896;
    }
    top_1
    {
        type            patch;
        nFaces          0;
        startFace       8148;
    }
    bottom_1
    {
        type            wall;
        inGroups        1(wall);
        nFaces          0;
        startFace       8148;
    }
    frontAndBack_2
    {
        type            empty;
        inGroups        1(empty);
        nFaces          5758;
        startFace       8148;
    }
    top_2
    {
        type            patch;
        nFaces          0;
        startFace       13906;
    }
    right_3
    {
        type            wall;
        inGroups        1(wall);
        nFaces          0;
        startFace       13906;
    }
    frontAndBack_3
    {
        type            empty;
        inGroups        1(empty);
        nFaces          0;
        startFace       13906;
    }
    top_3
    {
        type            patch;
        nFaces          0;
        startFace       13906;
    }
    bottom_3
    {
        type            wall;
        inGroups        1(wall);
        nFaces          0;
        startFace       13906;
    }
    left_4
    {
        type            wall;
        inGroups        1(wall);
        nFaces          0;
        startFace       13906;
    }
    right_4
    {
        type            wall;
        inGroups        1(wall);
        nFaces          0;
        startFace       13906;
    }
    frontAndBack_4
    {
        type            empty;
        inGroups        1(empty);
        nFaces          0;
        startFace       13906;
    }
    bottom_4
    {
        type            wall;
        inGroups        1(wall);
        nFaces          0;
        startFace       13906;
    }
    oversetPatch
    {
        type            overset;
        inGroups        1(overset);
        nFaces          0;
        startFace       13906;
    }
    frontAndBack
    {
        type            empty;
        inGroups        1(empty);
        nFaces          0;
        startFace       13906;
    }
    movingObject
    {
        type            wall;
        inGroups        1(wall);
        nFaces          0;
        startFace       13906;
    }
    procBoundary45to40
    {
        type            processor;
        inGroups        1(processor);
        nFaces          15;
        startFace       13906;
        matchTolerance  0.0001;
        transform       unknown;
        myProcNo        45;
        neighbProcNo    40;
    }
    procBoundary45to43
    {
        type            processor;
        inGroups        1(processor);
        nFaces          59;
        startFace       13921;
        matchTolerance  0.0001;
        transform       unknown;
        myProcNo        45;
        neighbProcNo    43;
    }
    procBoundary45to44
    {
        type            processor;
        inGroups        1(processor);
        nFaces          73;
        startFace       13980;
        matchTolerance  0.0001;
        transform       unknown;
        myProcNo        45;
        neighbProcNo    44;
    }
    procBoundary45to46
    {
        type            processor;
        inGroups        1(processor);
        nFaces          57;
        startFace       14053;
        matchTolerance  0.0001;
        transform       unknown;
        myProcNo        45;
        neighbProcNo    46;
    }
    procBoundary45to49
    {
        type            processor;
        inGroups        1(processor);
        nFaces          69;
        startFace       14110;
        matchTolerance  0.0001;
        transform       unknown;
        myProcNo        45;
        neighbProcNo    49;
    }
)

// ************************************************************************* //
