/*--------------------------------*- C++ -*----------------------------------*\
| =========                 |                                                 |
| \\      /  F ield         | OpenFOAM: The Open Source CFD Toolbox           |
|  \\    /   O peration     | Version:  2412                                  |
|   \\  /    A nd           | Website:  www.openfoam.com                      |
|    \\/     M anipulation  |                                                 |
\*---------------------------------------------------------------------------*/
FoamFile
{
    version     2.0;
    format      ascii;
    arch        "LSB;label=32;scalar=64";
    class       polyBoundaryMesh;
    location    "constant/polyMesh";
    object      boundary;
}
// * * * * * * * * * * * * * * * * * * * * * * * * * * * * * * * * * * * * * //

24
(
    left_1
    {
        type            wall;
        inGroups        1(wall);
        nFaces          0;
        startFace       21704;
    }
    frontAndBack_1
    {
        type            empty;
        inGroups        1(empty);
        nFaces          0;
        startFace       21704;
    }
    top_1
    {
        type            patch;
        nFaces          0;
        startFace       21704;
    }
    bottom_1
    {
        type            wall;
        inGroups        1(wall);
        nFaces          0;
        startFace       21704;
    }
    frontAndBack_2
    {
        type            empty;
        inGroups        1(empty);
        nFaces          0;
        startFace       21704;
    }
    top_2
    {
        type            patch;
        nFaces          0;
        startFace       21704;
    }
    right_3
    {
        type            wall;
        inGroups        1(wall);
        nFaces          0;
        startFace       21704;
    }
    frontAndBack_3
    {
        type            empty;
        inGroups        1(empty);
        nFaces          21994;
        startFace       21704;
    }
    top_3
    {
        type            patch;
        nFaces          0;
        startFace       43698;
    }
    bottom_3
    {
        type            wall;
        inGroups        1(wall);
        nFaces          0;
        startFace       43698;
    }
    left_4
    {
        type            wall;
        inGroups        1(wall);
        nFaces          0;
        startFace       43698;
    }
    right_4
    {
        type            wall;
        inGroups        1(wall);
        nFaces          0;
        startFace       43698;
    }
    frontAndBack_4
    {
        type            empty;
        inGroups        1(empty);
        nFaces          0;
        startFace       43698;
    }
    bottom_4
    {
        type            wall;
        inGroups        1(wall);
        nFaces          0;
        startFace       43698;
    }
    oversetPatch
    {
        type            overset;
        inGroups        1(overset);
        nFaces          0;
        startFace       43698;
    }
    frontAndBack
    {
        type            empty;
        inGroups        1(empty);
        nFaces          0;
        startFace       43698;
    }
    movingObject
    {
        type            wall;
        inGroups        1(wall);
        nFaces          0;
        startFace       43698;
    }
    procBoundary29to16
    {
        type            processor;
        inGroups        1(processor);
        nFaces          60;
        startFace       43698;
        matchTolerance  0.0001;
        transform       unknown;
        myProcNo        29;
        neighbProcNo    16;
    }
    procBoundary29to17
    {
        type            processor;
        inGroups        1(processor);
        nFaces          31;
        startFace       43758;
        matchTolerance  0.0001;
        transform       unknown;
        myProcNo        29;
        neighbProcNo    17;
    }
    procBoundary29to26
    {
        type            processor;
        inGroups        1(processor);
        nFaces          53;
        startFace       43789;
        matchTolerance  0.0001;
        transform       unknown;
        myProcNo        29;
        neighbProcNo    26;
    }
    procBoundary29to27
    {
        type            processor;
        inGroups        1(processor);
        nFaces          27;
        startFace       43842;
        matchTolerance  0.0001;
        transform       unknown;
        myProcNo        29;
        neighbProcNo    27;
    }
    procBoundary29to28
    {
        type            processor;
        inGroups        1(processor);
        nFaces          205;
        startFace       43869;
        matchTolerance  0.0001;
        transform       unknown;
        myProcNo        29;
        neighbProcNo    28;
    }
    procBoundary29to30
    {
        type            processor;
        inGroups        1(processor);
        nFaces          100;
        startFace       44074;
        matchTolerance  0.0001;
        transform       unknown;
        myProcNo        29;
        neighbProcNo    30;
    }
    procBoundary29to31
    {
        type            processor;
        inGroups        1(processor);
        nFaces          104;
        startFace       44174;
        matchTolerance  0.0001;
        transform       unknown;
        myProcNo        29;
        neighbProcNo    31;
    }
)

// ************************************************************************* //
