/*--------------------------------*- C++ -*----------------------------------*\
| =========                 |                                                 |
| \\      /  F ield         | OpenFOAM: The Open Source CFD Toolbox           |
|  \\    /   O peration     | Version:  2406                                  |
|   \\  /    A nd           | Website:  www.openfoam.com                      |
|    \\/     M anipulation  |                                                 |
\*---------------------------------------------------------------------------*/
FoamFile
{
    version     2.0;
    format      ascii;
    arch        "LSB;label=32;scalar=64";
    class       polyBoundaryMesh;
    location    "constant/polyMesh";
    object      boundary;
}
// * * * * * * * * * * * * * * * * * * * * * * * * * * * * * * * * * * * * * //

22
(
    left_1
    {
        type            wall;
        inGroups        1(wall);
        nFaces          0;
        startFace       11884;
    }
    frontAndBack_1
    {
        type            empty;
        inGroups        1(empty);
        nFaces          0;
        startFace       11884;
    }
    top_1
    {
        type            patch;
        nFaces          0;
        startFace       11884;
    }
    bottom_1
    {
        type            wall;
        inGroups        1(wall);
        nFaces          0;
        startFace       11884;
    }
    frontAndBack_2
    {
        type            empty;
        inGroups        1(empty);
        nFaces          11414;
        startFace       11884;
    }
    top_2
    {
        type            patch;
        nFaces          0;
        startFace       23298;
    }
    right_3
    {
        type            wall;
        inGroups        1(wall);
        nFaces          0;
        startFace       23298;
    }
    frontAndBack_3
    {
        type            empty;
        inGroups        1(empty);
        nFaces          578;
        startFace       23298;
    }
    top_3
    {
        type            patch;
        nFaces          0;
        startFace       23876;
    }
    bottom_3
    {
        type            wall;
        inGroups        1(wall);
        nFaces          0;
        startFace       23876;
    }
    left_4
    {
        type            wall;
        inGroups        1(wall);
        nFaces          0;
        startFace       23876;
    }
    right_4
    {
        type            wall;
        inGroups        1(wall);
        nFaces          0;
        startFace       23876;
    }
    frontAndBack_4
    {
        type            empty;
        inGroups        1(empty);
        nFaces          0;
        startFace       23876;
    }
    bottom_4
    {
        type            wall;
        inGroups        1(wall);
        nFaces          0;
        startFace       23876;
    }
    oversetPatch
    {
        type            overset;
        inGroups        1(overset);
        nFaces          0;
        startFace       23876;
    }
    frontAndBack
    {
        type            empty;
        inGroups        1(empty);
        nFaces          0;
        startFace       23876;
    }
    movingObject
    {
        type            wall;
        inGroups        1(wall);
        nFaces          0;
        startFace       23876;
    }
    procBoundary20to18
    {
        type            processor;
        inGroups        1(processor);
        nFaces          68;
        startFace       23876;
        matchTolerance  0.0001;
        transform       unknown;
        myProcNo        20;
        neighbProcNo    18;
    }
    procBoundary20to21
    {
        type            processor;
        inGroups        1(processor);
        nFaces          127;
        startFace       23944;
        matchTolerance  0.0001;
        transform       unknown;
        myProcNo        20;
        neighbProcNo    21;
    }
    procBoundary20to22
    {
        type            processor;
        inGroups        1(processor);
        nFaces          69;
        startFace       24071;
        matchTolerance  0.0001;
        transform       unknown;
        myProcNo        20;
        neighbProcNo    22;
    }
    procBoundary20to28
    {
        type            processor;
        inGroups        1(processor);
        nFaces          5;
        startFace       24140;
        matchTolerance  0.0001;
        transform       unknown;
        myProcNo        20;
        neighbProcNo    28;
    }
    procBoundary20to29
    {
        type            processor;
        inGroups        1(processor);
        nFaces          43;
        startFace       24145;
        matchTolerance  0.0001;
        transform       unknown;
        myProcNo        20;
        neighbProcNo    29;
    }
)

// ************************************************************************* //
