/*--------------------------------*- C++ -*----------------------------------*\
| =========                 |                                                 |
| \\      /  F ield         | OpenFOAM: The Open Source CFD Toolbox           |
|  \\    /   O peration     | Version:  2406                                  |
|   \\  /    A nd           | Website:  www.openfoam.com                      |
|    \\/     M anipulation  |                                                 |
\*---------------------------------------------------------------------------*/
FoamFile
{
    version     2.0;
    format      ascii;
    arch        "LSB;label=32;scalar=64";
    class       polyBoundaryMesh;
    location    "constant/polyMesh";
    object      boundary;
}
// * * * * * * * * * * * * * * * * * * * * * * * * * * * * * * * * * * * * * //

23
(
    left_1
    {
        type            wall;
        inGroups        1(wall);
        nFaces          66;
        startFace       11881;
    }
    frontAndBack_1
    {
        type            empty;
        inGroups        1(empty);
        nFaces          12046;
        startFace       11947;
    }
    top_1
    {
        type            patch;
        nFaces          0;
        startFace       23993;
    }
    bottom_1
    {
        type            wall;
        inGroups        1(wall);
        nFaces          0;
        startFace       23993;
    }
    frontAndBack_2
    {
        type            empty;
        inGroups        1(empty);
        nFaces          0;
        startFace       23993;
    }
    top_2
    {
        type            patch;
        nFaces          0;
        startFace       23993;
    }
    right_3
    {
        type            wall;
        inGroups        1(wall);
        nFaces          0;
        startFace       23993;
    }
    frontAndBack_3
    {
        type            empty;
        inGroups        1(empty);
        nFaces          0;
        startFace       23993;
    }
    top_3
    {
        type            patch;
        nFaces          0;
        startFace       23993;
    }
    bottom_3
    {
        type            wall;
        inGroups        1(wall);
        nFaces          0;
        startFace       23993;
    }
    left_4
    {
        type            wall;
        inGroups        1(wall);
        nFaces          0;
        startFace       23993;
    }
    right_4
    {
        type            wall;
        inGroups        1(wall);
        nFaces          0;
        startFace       23993;
    }
    frontAndBack_4
    {
        type            empty;
        inGroups        1(empty);
        nFaces          0;
        startFace       23993;
    }
    bottom_4
    {
        type            wall;
        inGroups        1(wall);
        nFaces          0;
        startFace       23993;
    }
    oversetPatch
    {
        type            overset;
        inGroups        1(overset);
        nFaces          0;
        startFace       23993;
    }
    frontAndBack
    {
        type            empty;
        inGroups        1(empty);
        nFaces          0;
        startFace       23993;
    }
    movingObject
    {
        type            wall;
        inGroups        1(wall);
        nFaces          0;
        startFace       23993;
    }
    procBoundary16to0
    {
        type            processor;
        inGroups        1(processor);
        nFaces          75;
        startFace       23993;
        matchTolerance  0.0001;
        transform       unknown;
        myProcNo        16;
        neighbProcNo    0;
    }
    procBoundary16to15
    {
        type            processor;
        inGroups        1(processor);
        nFaces          34;
        startFace       24068;
        matchTolerance  0.0001;
        transform       unknown;
        myProcNo        16;
        neighbProcNo    15;
    }
    procBoundary16to17
    {
        type            processor;
        inGroups        1(processor);
        nFaces          85;
        startFace       24102;
        matchTolerance  0.0001;
        transform       unknown;
        myProcNo        16;
        neighbProcNo    17;
    }
    procBoundary16to25
    {
        type            processor;
        inGroups        1(processor);
        nFaces          14;
        startFace       24187;
        matchTolerance  0.0001;
        transform       unknown;
        myProcNo        16;
        neighbProcNo    25;
    }
    procBoundary16to26
    {
        type            processor;
        inGroups        1(processor);
        nFaces          25;
        startFace       24201;
        matchTolerance  0.0001;
        transform       unknown;
        myProcNo        16;
        neighbProcNo    26;
    }
    procBoundary16to30
    {
        type            processor;
        inGroups        1(processor);
        nFaces          31;
        startFace       24226;
        matchTolerance  0.0001;
        transform       unknown;
        myProcNo        16;
        neighbProcNo    30;
    }
)

// ************************************************************************* //
