/*--------------------------------*- C++ -*----------------------------------*\
| =========                 |                                                 |
| \\      /  F ield         | OpenFOAM: The Open Source CFD Toolbox           |
|  \\    /   O peration     | Version:  2406                                  |
|   \\  /    A nd           | Website:  www.openfoam.com                      |
|    \\/     M anipulation  |                                                 |
\*---------------------------------------------------------------------------*/
FoamFile
{
    version     2.0;
    format      ascii;
    arch        "LSB;label=32;scalar=64";
    class       polyBoundaryMesh;
    location    "constant/polyMesh";
    object      boundary;
}
// * * * * * * * * * * * * * * * * * * * * * * * * * * * * * * * * * * * * * //

23
(
    left_1
    {
        type            wall;
        inGroups        1(wall);
        nFaces          0;
        startFace       11986;
    }
    frontAndBack_1
    {
        type            empty;
        inGroups        1(empty);
        nFaces          0;
        startFace       11986;
    }
    top_1
    {
        type            patch;
        nFaces          0;
        startFace       11986;
    }
    bottom_1
    {
        type            wall;
        inGroups        1(wall);
        nFaces          0;
        startFace       11986;
    }
    frontAndBack_2
    {
        type            empty;
        inGroups        1(empty);
        nFaces          10184;
        startFace       11986;
    }
    top_2
    {
        type            patch;
        nFaces          0;
        startFace       22170;
    }
    right_3
    {
        type            wall;
        inGroups        1(wall);
        nFaces          0;
        startFace       22170;
    }
    frontAndBack_3
    {
        type            empty;
        inGroups        1(empty);
        nFaces          1922;
        startFace       22170;
    }
    top_3
    {
        type            patch;
        nFaces          0;
        startFace       24092;
    }
    bottom_3
    {
        type            wall;
        inGroups        1(wall);
        nFaces          0;
        startFace       24092;
    }
    left_4
    {
        type            wall;
        inGroups        1(wall);
        nFaces          0;
        startFace       24092;
    }
    right_4
    {
        type            wall;
        inGroups        1(wall);
        nFaces          0;
        startFace       24092;
    }
    frontAndBack_4
    {
        type            empty;
        inGroups        1(empty);
        nFaces          0;
        startFace       24092;
    }
    bottom_4
    {
        type            wall;
        inGroups        1(wall);
        nFaces          0;
        startFace       24092;
    }
    oversetPatch
    {
        type            overset;
        inGroups        1(overset);
        nFaces          0;
        startFace       24092;
    }
    frontAndBack
    {
        type            empty;
        inGroups        1(empty);
        nFaces          0;
        startFace       24092;
    }
    movingObject
    {
        type            wall;
        inGroups        1(wall);
        nFaces          0;
        startFace       24092;
    }
    procBoundary31to8
    {
        type            processor;
        inGroups        1(processor);
        nFaces          41;
        startFace       24092;
        matchTolerance  0.0001;
        transform       unknown;
        myProcNo        31;
        neighbProcNo    8;
    }
    procBoundary31to14
    {
        type            processor;
        inGroups        1(processor);
        nFaces          74;
        startFace       24133;
        matchTolerance  0.0001;
        transform       unknown;
        myProcNo        31;
        neighbProcNo    14;
    }
    procBoundary31to26
    {
        type            processor;
        inGroups        1(processor);
        nFaces          13;
        startFace       24207;
        matchTolerance  0.0001;
        transform       unknown;
        myProcNo        31;
        neighbProcNo    26;
    }
    procBoundary31to27
    {
        type            processor;
        inGroups        1(processor);
        nFaces          57;
        startFace       24220;
        matchTolerance  0.0001;
        transform       unknown;
        myProcNo        31;
        neighbProcNo    27;
    }
    procBoundary31to28
    {
        type            processor;
        inGroups        1(processor);
        nFaces          49;
        startFace       24277;
        matchTolerance  0.0001;
        transform       unknown;
        myProcNo        31;
        neighbProcNo    28;
    }
    procBoundary31to30
    {
        type            processor;
        inGroups        1(processor);
        nFaces          96;
        startFace       24326;
        matchTolerance  0.0001;
        transform       unknown;
        myProcNo        31;
        neighbProcNo    30;
    }
)

// ************************************************************************* //
