/*--------------------------------*- C++ -*----------------------------------*\
| =========                 |                                                 |
| \\      /  F ield         | OpenFOAM: The Open Source CFD Toolbox           |
|  \\    /   O peration     | Version:  2406                                  |
|   \\  /    A nd           | Website:  www.openfoam.com                      |
|    \\/     M anipulation  |                                                 |
\*---------------------------------------------------------------------------*/
FoamFile
{
    version     2.0;
    format      ascii;
    arch        "LSB;label=32;scalar=64";
    class       polyBoundaryMesh;
    location    "constant/polyMesh";
    object      boundary;
}
// * * * * * * * * * * * * * * * * * * * * * * * * * * * * * * * * * * * * * //

19
(
    left_1
    {
        type            wall;
        inGroups        1(wall);
        nFaces          119;
        startFace       21419;
    }
    frontAndBack_1
    {
        type            empty;
        inGroups        1(empty);
        nFaces          21656;
        startFace       21538;
    }
    top_1
    {
        type            patch;
        nFaces          0;
        startFace       43194;
    }
    bottom_1
    {
        type            wall;
        inGroups        1(wall);
        nFaces          113;
        startFace       43194;
    }
    frontAndBack_2
    {
        type            empty;
        inGroups        1(empty);
        nFaces          0;
        startFace       43307;
    }
    top_2
    {
        type            patch;
        nFaces          0;
        startFace       43307;
    }
    right_3
    {
        type            wall;
        inGroups        1(wall);
        nFaces          0;
        startFace       43307;
    }
    frontAndBack_3
    {
        type            empty;
        inGroups        1(empty);
        nFaces          0;
        startFace       43307;
    }
    top_3
    {
        type            patch;
        nFaces          0;
        startFace       43307;
    }
    bottom_3
    {
        type            wall;
        inGroups        1(wall);
        nFaces          0;
        startFace       43307;
    }
    left_4
    {
        type            wall;
        inGroups        1(wall);
        nFaces          0;
        startFace       43307;
    }
    right_4
    {
        type            wall;
        inGroups        1(wall);
        nFaces          0;
        startFace       43307;
    }
    frontAndBack_4
    {
        type            empty;
        inGroups        1(empty);
        nFaces          0;
        startFace       43307;
    }
    bottom_4
    {
        type            wall;
        inGroups        1(wall);
        nFaces          0;
        startFace       43307;
    }
    oversetPatch
    {
        type            overset;
        inGroups        1(overset);
        nFaces          0;
        startFace       43307;
    }
    frontAndBack
    {
        type            empty;
        inGroups        1(empty);
        nFaces          0;
        startFace       43307;
    }
    movingObject
    {
        type            wall;
        inGroups        1(wall);
        nFaces          0;
        startFace       43307;
    }
    procBoundary12to13
    {
        type            processor;
        inGroups        1(processor);
        nFaces          164;
        startFace       43307;
        matchTolerance  0.0001;
        transform       unknown;
        myProcNo        12;
        neighbProcNo    13;
    }
    procBoundary12to14
    {
        type            processor;
        inGroups        1(processor);
        nFaces          78;
        startFace       43471;
        matchTolerance  0.0001;
        transform       unknown;
        myProcNo        12;
        neighbProcNo    14;
    }
)

// ************************************************************************* //
