/*--------------------------------*- C++ -*----------------------------------*\
| =========                 |                                                 |
| \\      /  F ield         | OpenFOAM: The Open Source CFD Toolbox           |
|  \\    /   O peration     | Version:  2412                                  |
|   \\  /    A nd           | Website:  www.openfoam.com                      |
|    \\/     M anipulation  |                                                 |
\*---------------------------------------------------------------------------*/
FoamFile
{
    version     2.0;
    format      ascii;
    arch        "LSB;label=32;scalar=64";
    class       polyBoundaryMesh;
    location    "constant/polyMesh";
    object      boundary;
}
// * * * * * * * * * * * * * * * * * * * * * * * * * * * * * * * * * * * * * //

25
(
    left_1
    {
        type            wall;
        inGroups        1(wall);
        nFaces          0;
        startFace       6882;
    }
    frontAndBack_1
    {
        type            empty;
        inGroups        1(empty);
        nFaces          0;
        startFace       6882;
    }
    top_1
    {
        type            patch;
        nFaces          0;
        startFace       6882;
    }
    bottom_1
    {
        type            wall;
        inGroups        1(wall);
        nFaces          0;
        startFace       6882;
    }
    frontAndBack_2
    {
        type            empty;
        inGroups        1(empty);
        nFaces          0;
        startFace       6882;
    }
    top_2
    {
        type            patch;
        nFaces          0;
        startFace       6882;
    }
    right_3
    {
        type            wall;
        inGroups        1(wall);
        nFaces          0;
        startFace       6882;
    }
    frontAndBack_3
    {
        type            empty;
        inGroups        1(empty);
        nFaces          7036;
        startFace       6882;
    }
    top_3
    {
        type            patch;
        nFaces          0;
        startFace       13918;
    }
    bottom_3
    {
        type            wall;
        inGroups        1(wall);
        nFaces          0;
        startFace       13918;
    }
    left_4
    {
        type            wall;
        inGroups        1(wall);
        nFaces          0;
        startFace       13918;
    }
    right_4
    {
        type            wall;
        inGroups        1(wall);
        nFaces          0;
        startFace       13918;
    }
    frontAndBack_4
    {
        type            empty;
        inGroups        1(empty);
        nFaces          0;
        startFace       13918;
    }
    bottom_4
    {
        type            wall;
        inGroups        1(wall);
        nFaces          0;
        startFace       13918;
    }
    oversetPatch
    {
        type            overset;
        inGroups        1(overset);
        nFaces          0;
        startFace       13918;
    }
    frontAndBack
    {
        type            empty;
        inGroups        1(empty);
        nFaces          0;
        startFace       13918;
    }
    movingObject
    {
        type            wall;
        inGroups        1(wall);
        nFaces          0;
        startFace       13918;
    }
    procBoundary71to68
    {
        type            processor;
        inGroups        1(processor);
        nFaces          18;
        startFace       13918;
        matchTolerance  0.0001;
        transform       unknown;
        myProcNo        71;
        neighbProcNo    68;
    }
    procBoundary71to69
    {
        type            processor;
        inGroups        1(processor);
        nFaces          78;
        startFace       13936;
        matchTolerance  0.0001;
        transform       unknown;
        myProcNo        71;
        neighbProcNo    69;
    }
    procBoundary71to72
    {
        type            processor;
        inGroups        1(processor);
        nFaces          83;
        startFace       14014;
        matchTolerance  0.0001;
        transform       unknown;
        myProcNo        71;
        neighbProcNo    72;
    }
    procBoundary71to73
    {
        type            processor;
        inGroups        1(processor);
        nFaces          14;
        startFace       14097;
        matchTolerance  0.0001;
        transform       unknown;
        myProcNo        71;
        neighbProcNo    73;
    }
    procBoundary71to74
    {
        type            processor;
        inGroups        1(processor);
        nFaces          16;
        startFace       14111;
        matchTolerance  0.0001;
        transform       unknown;
        myProcNo        71;
        neighbProcNo    74;
    }
    procBoundary71to76
    {
        type            processor;
        inGroups        1(processor);
        nFaces          25;
        startFace       14127;
        matchTolerance  0.0001;
        transform       unknown;
        myProcNo        71;
        neighbProcNo    76;
    }
    procBoundary71to79
    {
        type            processor;
        inGroups        1(processor);
        nFaces          9;
        startFace       14152;
        matchTolerance  0.0001;
        transform       unknown;
        myProcNo        71;
        neighbProcNo    79;
    }
    procBoundary71to86
    {
        type            processor;
        inGroups        1(processor);
        nFaces          65;
        startFace       14161;
        matchTolerance  0.0001;
        transform       unknown;
        myProcNo        71;
        neighbProcNo    86;
    }
)

// ************************************************************************* //
