/*--------------------------------*- C++ -*----------------------------------*\
| =========                 |                                                 |
| \\      /  F ield         | OpenFOAM: The Open Source CFD Toolbox           |
|  \\    /   O peration     | Version:  2412                                  |
|   \\  /    A nd           | Website:  www.openfoam.com                      |
|    \\/     M anipulation  |                                                 |
\*---------------------------------------------------------------------------*/
FoamFile
{
    version     2.0;
    format      ascii;
    arch        "LSB;label=32;scalar=64";
    class       polyBoundaryMesh;
    location    "constant/polyMesh";
    object      boundary;
}
// * * * * * * * * * * * * * * * * * * * * * * * * * * * * * * * * * * * * * //

21
(
    left_1
    {
        type            wall;
        inGroups        1(wall);
        nFaces          140;
        startFace       21723;
    }
    frontAndBack_1
    {
        type            empty;
        inGroups        1(empty);
        nFaces          22006;
        startFace       21863;
    }
    top_1
    {
        type            patch;
        nFaces          0;
        startFace       43869;
    }
    bottom_1
    {
        type            wall;
        inGroups        1(wall);
        nFaces          0;
        startFace       43869;
    }
    frontAndBack_2
    {
        type            empty;
        inGroups        1(empty);
        nFaces          0;
        startFace       43869;
    }
    top_2
    {
        type            patch;
        nFaces          0;
        startFace       43869;
    }
    right_3
    {
        type            wall;
        inGroups        1(wall);
        nFaces          0;
        startFace       43869;
    }
    frontAndBack_3
    {
        type            empty;
        inGroups        1(empty);
        nFaces          0;
        startFace       43869;
    }
    top_3
    {
        type            patch;
        nFaces          0;
        startFace       43869;
    }
    bottom_3
    {
        type            wall;
        inGroups        1(wall);
        nFaces          0;
        startFace       43869;
    }
    left_4
    {
        type            wall;
        inGroups        1(wall);
        nFaces          0;
        startFace       43869;
    }
    right_4
    {
        type            wall;
        inGroups        1(wall);
        nFaces          0;
        startFace       43869;
    }
    frontAndBack_4
    {
        type            empty;
        inGroups        1(empty);
        nFaces          0;
        startFace       43869;
    }
    bottom_4
    {
        type            wall;
        inGroups        1(wall);
        nFaces          0;
        startFace       43869;
    }
    oversetPatch
    {
        type            overset;
        inGroups        1(overset);
        nFaces          0;
        startFace       43869;
    }
    frontAndBack
    {
        type            empty;
        inGroups        1(empty);
        nFaces          0;
        startFace       43869;
    }
    movingObject
    {
        type            wall;
        inGroups        1(wall);
        nFaces          0;
        startFace       43869;
    }
    procBoundary23to1
    {
        type            processor;
        inGroups        1(processor);
        nFaces          125;
        startFace       43869;
        matchTolerance  0.0001;
        transform       unknown;
        myProcNo        23;
        neighbProcNo    1;
    }
    procBoundary23to18
    {
        type            processor;
        inGroups        1(processor);
        nFaces          98;
        startFace       43994;
        matchTolerance  0.0001;
        transform       unknown;
        myProcNo        23;
        neighbProcNo    18;
    }
    procBoundary23to20
    {
        type            processor;
        inGroups        1(processor);
        nFaces          50;
        startFace       44092;
        matchTolerance  0.0001;
        transform       unknown;
        myProcNo        23;
        neighbProcNo    20;
    }
    procBoundary23to22
    {
        type            processor;
        inGroups        1(processor);
        nFaces          153;
        startFace       44142;
        matchTolerance  0.0001;
        transform       unknown;
        myProcNo        23;
        neighbProcNo    22;
    }
)

// ************************************************************************* //
