/*--------------------------------*- C++ -*----------------------------------*\
| =========                 |                                                 |
| \\      /  F ield         | OpenFOAM: The Open Source CFD Toolbox           |
|  \\    /   O peration     | Version:  2412                                  |
|   \\  /    A nd           | Website:  www.openfoam.com                      |
|    \\/     M anipulation  |                                                 |
\*---------------------------------------------------------------------------*/
FoamFile
{
    version     2.0;
    format      ascii;
    arch        "LSB;label=32;scalar=64";
    class       pointBoundaryMesh;
    location    "constant/polyMesh/pointMesh";
    object      boundary;
}
// * * * * * * * * * * * * * * * * * * * * * * * * * * * * * * * * * * * * * //

3
(
    oversetPatch
    {
        type            genericPatch;
    }
    frontAndBack
    {
        type            empty;
        inGroups        1(empty);
    }
    movingObject
    {
        type            wall;
        inGroups        1(wall);
    }
)

// ************************************************************************* //
