/*--------------------------------*- C++ -*----------------------------------*\
| =========                 |                                                 |
| \\      /  F ield         | OpenFOAM: The Open Source CFD Toolbox           |
|  \\    /   O peration     | Version:  2412                                  |
|   \\  /    A nd           | Website:  www.openfoam.com                      |
|    \\/     M anipulation  |                                                 |
\*---------------------------------------------------------------------------*/
FoamFile
{
    version     2.0;
    format      ascii;
    arch        "LSB;label=32;scalar=64";
    class       polyBoundaryMesh;
    location    "constant/polyMesh";
    object      boundary;
}
// * * * * * * * * * * * * * * * * * * * * * * * * * * * * * * * * * * * * * //

25
(
    left_1
    {
        type            wall;
        inGroups        1(wall);
        nFaces          0;
        startFace       21817;
    }
    frontAndBack_1
    {
        type            empty;
        inGroups        1(empty);
        nFaces          16924;
        startFace       21817;
    }
    top_1
    {
        type            patch;
        nFaces          0;
        startFace       38741;
    }
    bottom_1
    {
        type            wall;
        inGroups        1(wall);
        nFaces          0;
        startFace       38741;
    }
    frontAndBack_2
    {
        type            empty;
        inGroups        1(empty);
        nFaces          5168;
        startFace       38741;
    }
    top_2
    {
        type            patch;
        nFaces          0;
        startFace       43909;
    }
    right_3
    {
        type            wall;
        inGroups        1(wall);
        nFaces          0;
        startFace       43909;
    }
    frontAndBack_3
    {
        type            empty;
        inGroups        1(empty);
        nFaces          0;
        startFace       43909;
    }
    top_3
    {
        type            patch;
        nFaces          0;
        startFace       43909;
    }
    bottom_3
    {
        type            wall;
        inGroups        1(wall);
        nFaces          0;
        startFace       43909;
    }
    left_4
    {
        type            wall;
        inGroups        1(wall);
        nFaces          0;
        startFace       43909;
    }
    right_4
    {
        type            wall;
        inGroups        1(wall);
        nFaces          0;
        startFace       43909;
    }
    frontAndBack_4
    {
        type            empty;
        inGroups        1(empty);
        nFaces          0;
        startFace       43909;
    }
    bottom_4
    {
        type            wall;
        inGroups        1(wall);
        nFaces          0;
        startFace       43909;
    }
    oversetPatch
    {
        type            overset;
        inGroups        1(overset);
        nFaces          0;
        startFace       43909;
    }
    frontAndBack
    {
        type            empty;
        inGroups        1(empty);
        nFaces          0;
        startFace       43909;
    }
    movingObject
    {
        type            wall;
        inGroups        1(wall);
        nFaces          0;
        startFace       43909;
    }
    procBoundary18to0
    {
        type            processor;
        inGroups        1(processor);
        nFaces          67;
        startFace       43909;
        matchTolerance  0.0001;
        transform       unknown;
        myProcNo        18;
        neighbProcNo    0;
    }
    procBoundary18to1
    {
        type            processor;
        inGroups        1(processor);
        nFaces          34;
        startFace       43976;
        matchTolerance  0.0001;
        transform       unknown;
        myProcNo        18;
        neighbProcNo    1;
    }
    procBoundary18to13
    {
        type            processor;
        inGroups        1(processor);
        nFaces          122;
        startFace       44010;
        matchTolerance  0.0001;
        transform       unknown;
        myProcNo        18;
        neighbProcNo    13;
    }
    procBoundary18to16
    {
        type            processor;
        inGroups        1(processor);
        nFaces          23;
        startFace       44132;
        matchTolerance  0.0001;
        transform       unknown;
        myProcNo        18;
        neighbProcNo    16;
    }
    procBoundary18to17
    {
        type            processor;
        inGroups        1(processor);
        nFaces          50;
        startFace       44155;
        matchTolerance  0.0001;
        transform       unknown;
        myProcNo        18;
        neighbProcNo    17;
    }
    procBoundary18to19
    {
        type            processor;
        inGroups        1(processor);
        nFaces          152;
        startFace       44205;
        matchTolerance  0.0001;
        transform       unknown;
        myProcNo        18;
        neighbProcNo    19;
    }
    procBoundary18to22
    {
        type            processor;
        inGroups        1(processor);
        nFaces          43;
        startFace       44357;
        matchTolerance  0.0001;
        transform       unknown;
        myProcNo        18;
        neighbProcNo    22;
    }
    procBoundary18to23
    {
        type            processor;
        inGroups        1(processor);
        nFaces          98;
        startFace       44400;
        matchTolerance  0.0001;
        transform       unknown;
        myProcNo        18;
        neighbProcNo    23;
    }
)

// ************************************************************************* //
