/*--------------------------------*- C++ -*----------------------------------*\
| =========                 |                                                 |
| \\      /  F ield         | OpenFOAM: The Open Source CFD Toolbox           |
|  \\    /   O peration     | Version:  2412                                  |
|   \\  /    A nd           | Website:  www.openfoam.com                      |
|    \\/     M anipulation  |                                                 |
\*---------------------------------------------------------------------------*/
FoamFile
{
    version     2.0;
    format      ascii;
    arch        "LSB;label=32;scalar=64";
    class       polyBoundaryMesh;
    location    "constant/polyMesh";
    object      boundary;
}
// * * * * * * * * * * * * * * * * * * * * * * * * * * * * * * * * * * * * * //

22
(
    left_1
    {
        type            wall;
        inGroups        1(wall);
        nFaces          0;
        startFace       6813;
    }
    frontAndBack_1
    {
        type            empty;
        inGroups        1(empty);
        nFaces          0;
        startFace       6813;
    }
    top_1
    {
        type            patch;
        nFaces          0;
        startFace       6813;
    }
    bottom_1
    {
        type            wall;
        inGroups        1(wall);
        nFaces          0;
        startFace       6813;
    }
    frontAndBack_2
    {
        type            empty;
        inGroups        1(empty);
        nFaces          6482;
        startFace       6813;
    }
    top_2
    {
        type            patch;
        nFaces          0;
        startFace       13295;
    }
    right_3
    {
        type            wall;
        inGroups        1(wall);
        nFaces          0;
        startFace       13295;
    }
    frontAndBack_3
    {
        type            empty;
        inGroups        1(empty);
        nFaces          428;
        startFace       13295;
    }
    top_3
    {
        type            patch;
        nFaces          0;
        startFace       13723;
    }
    bottom_3
    {
        type            wall;
        inGroups        1(wall);
        nFaces          0;
        startFace       13723;
    }
    left_4
    {
        type            wall;
        inGroups        1(wall);
        nFaces          0;
        startFace       13723;
    }
    right_4
    {
        type            wall;
        inGroups        1(wall);
        nFaces          0;
        startFace       13723;
    }
    frontAndBack_4
    {
        type            empty;
        inGroups        1(empty);
        nFaces          0;
        startFace       13723;
    }
    bottom_4
    {
        type            wall;
        inGroups        1(wall);
        nFaces          0;
        startFace       13723;
    }
    oversetPatch
    {
        type            overset;
        inGroups        1(overset);
        nFaces          0;
        startFace       13723;
    }
    frontAndBack
    {
        type            empty;
        inGroups        1(empty);
        nFaces          0;
        startFace       13723;
    }
    movingObject
    {
        type            wall;
        inGroups        1(wall);
        nFaces          0;
        startFace       13723;
    }
    procBoundary80to78
    {
        type            processor;
        inGroups        1(processor);
        nFaces          58;
        startFace       13723;
        matchTolerance  0.0001;
        transform       unknown;
        myProcNo        80;
        neighbProcNo    78;
    }
    procBoundary80to79
    {
        type            processor;
        inGroups        1(processor);
        nFaces          66;
        startFace       13781;
        matchTolerance  0.0001;
        transform       unknown;
        myProcNo        80;
        neighbProcNo    79;
    }
    procBoundary80to82
    {
        type            processor;
        inGroups        1(processor);
        nFaces          32;
        startFace       13847;
        matchTolerance  0.0001;
        transform       unknown;
        myProcNo        80;
        neighbProcNo    82;
    }
    procBoundary80to84
    {
        type            processor;
        inGroups        1(processor);
        nFaces          34;
        startFace       13879;
        matchTolerance  0.0001;
        transform       unknown;
        myProcNo        80;
        neighbProcNo    84;
    }
    procBoundary80to86
    {
        type            processor;
        inGroups        1(processor);
        nFaces          37;
        startFace       13913;
        matchTolerance  0.0001;
        transform       unknown;
        myProcNo        80;
        neighbProcNo    86;
    }
)

// ************************************************************************* //
