/*--------------------------------*- C++ -*----------------------------------*\
| =========                 |                                                 |
| \\      /  F ield         | OpenFOAM: The Open Source CFD Toolbox           |
|  \\    /   O peration     | Version:  2406                                  |
|   \\  /    A nd           | Website:  www.openfoam.com                      |
|    \\/     M anipulation  |                                                 |
\*---------------------------------------------------------------------------*/
FoamFile
{
    version     2.0;
    format      ascii;
    arch        "LSB;label=32;scalar=64";
    class       polyBoundaryMesh;
    location    "constant/polyMesh";
    object      boundary;
}
// * * * * * * * * * * * * * * * * * * * * * * * * * * * * * * * * * * * * * //

22
(
    left_1
    {
        type            wall;
        inGroups        1(wall);
        nFaces          0;
        startFace       21632;
    }
    frontAndBack_1
    {
        type            empty;
        inGroups        1(empty);
        nFaces          0;
        startFace       21632;
    }
    top_1
    {
        type            patch;
        nFaces          0;
        startFace       21632;
    }
    bottom_1
    {
        type            wall;
        inGroups        1(wall);
        nFaces          0;
        startFace       21632;
    }
    frontAndBack_2
    {
        type            empty;
        inGroups        1(empty);
        nFaces          6630;
        startFace       21632;
    }
    top_2
    {
        type            patch;
        nFaces          0;
        startFace       28262;
    }
    right_3
    {
        type            wall;
        inGroups        1(wall);
        nFaces          0;
        startFace       28262;
    }
    frontAndBack_3
    {
        type            empty;
        inGroups        1(empty);
        nFaces          15232;
        startFace       28262;
    }
    top_3
    {
        type            patch;
        nFaces          0;
        startFace       43494;
    }
    bottom_3
    {
        type            wall;
        inGroups        1(wall);
        nFaces          78;
        startFace       43494;
    }
    left_4
    {
        type            wall;
        inGroups        1(wall);
        nFaces          0;
        startFace       43572;
    }
    right_4
    {
        type            wall;
        inGroups        1(wall);
        nFaces          0;
        startFace       43572;
    }
    frontAndBack_4
    {
        type            empty;
        inGroups        1(empty);
        nFaces          0;
        startFace       43572;
    }
    bottom_4
    {
        type            wall;
        inGroups        1(wall);
        nFaces          0;
        startFace       43572;
    }
    oversetPatch
    {
        type            overset;
        inGroups        1(overset);
        nFaces          0;
        startFace       43572;
    }
    frontAndBack
    {
        type            empty;
        inGroups        1(empty);
        nFaces          0;
        startFace       43572;
    }
    movingObject
    {
        type            wall;
        inGroups        1(wall);
        nFaces          0;
        startFace       43572;
    }
    procBoundary7to2
    {
        type            processor;
        inGroups        1(processor);
        nFaces          72;
        startFace       43572;
        matchTolerance  0.0001;
        transform       unknown;
        myProcNo        7;
        neighbProcNo    2;
    }
    procBoundary7to3
    {
        type            processor;
        inGroups        1(processor);
        nFaces          106;
        startFace       43644;
        matchTolerance  0.0001;
        transform       unknown;
        myProcNo        7;
        neighbProcNo    3;
    }
    procBoundary7to4
    {
        type            processor;
        inGroups        1(processor);
        nFaces          49;
        startFace       43750;
        matchTolerance  0.0001;
        transform       unknown;
        myProcNo        7;
        neighbProcNo    4;
    }
    procBoundary7to6
    {
        type            processor;
        inGroups        1(processor);
        nFaces          163;
        startFace       43799;
        matchTolerance  0.0001;
        transform       unknown;
        myProcNo        7;
        neighbProcNo    6;
    }
    procBoundary7to8
    {
        type            processor;
        inGroups        1(processor);
        nFaces          63;
        startFace       43962;
        matchTolerance  0.0001;
        transform       unknown;
        myProcNo        7;
        neighbProcNo    8;
    }
)

// ************************************************************************* //
