/*--------------------------------*- C++ -*----------------------------------*\
| =========                 |                                                 |
| \\      /  F ield         | OpenFOAM: The Open Source CFD Toolbox           |
|  \\    /   O peration     | Version:  2412                                  |
|   \\  /    A nd           | Website:  www.openfoam.com                      |
|    \\/     M anipulation  |                                                 |
\*---------------------------------------------------------------------------*/
FoamFile
{
    version     2.0;
    format      ascii;
    arch        "LSB;label=32;scalar=64";
    class       polyBoundaryMesh;
    location    "constant/polyMesh";
    object      boundary;
}
// * * * * * * * * * * * * * * * * * * * * * * * * * * * * * * * * * * * * * //

23
(
    left_1
    {
        type            wall;
        inGroups        1(wall);
        nFaces          0;
        startFace       21977;
    }
    frontAndBack_1
    {
        type            empty;
        inGroups        1(empty);
        nFaces          1972;
        startFace       21977;
    }
    top_1
    {
        type            patch;
        nFaces          0;
        startFace       23949;
    }
    bottom_1
    {
        type            wall;
        inGroups        1(wall);
        nFaces          0;
        startFace       23949;
    }
    frontAndBack_2
    {
        type            empty;
        inGroups        1(empty);
        nFaces          20096;
        startFace       23949;
    }
    top_2
    {
        type            patch;
        nFaces          0;
        startFace       44045;
    }
    right_3
    {
        type            wall;
        inGroups        1(wall);
        nFaces          0;
        startFace       44045;
    }
    frontAndBack_3
    {
        type            empty;
        inGroups        1(empty);
        nFaces          84;
        startFace       44045;
    }
    top_3
    {
        type            patch;
        nFaces          0;
        startFace       44129;
    }
    bottom_3
    {
        type            wall;
        inGroups        1(wall);
        nFaces          0;
        startFace       44129;
    }
    left_4
    {
        type            wall;
        inGroups        1(wall);
        nFaces          0;
        startFace       44129;
    }
    right_4
    {
        type            wall;
        inGroups        1(wall);
        nFaces          0;
        startFace       44129;
    }
    frontAndBack_4
    {
        type            empty;
        inGroups        1(empty);
        nFaces          0;
        startFace       44129;
    }
    bottom_4
    {
        type            wall;
        inGroups        1(wall);
        nFaces          0;
        startFace       44129;
    }
    oversetPatch
    {
        type            overset;
        inGroups        1(overset);
        nFaces          0;
        startFace       44129;
    }
    frontAndBack
    {
        type            empty;
        inGroups        1(empty);
        nFaces          0;
        startFace       44129;
    }
    movingObject
    {
        type            wall;
        inGroups        1(wall);
        nFaces          0;
        startFace       44129;
    }
    procBoundary7to0
    {
        type            processor;
        inGroups        1(processor);
        nFaces          30;
        startFace       44129;
        matchTolerance  0.0001;
        transform       unknown;
        myProcNo        7;
        neighbProcNo    0;
    }
    procBoundary7to3
    {
        type            processor;
        inGroups        1(processor);
        nFaces          49;
        startFace       44159;
        matchTolerance  0.0001;
        transform       unknown;
        myProcNo        7;
        neighbProcNo    3;
    }
    procBoundary7to6
    {
        type            processor;
        inGroups        1(processor);
        nFaces          134;
        startFace       44208;
        matchTolerance  0.0001;
        transform       unknown;
        myProcNo        7;
        neighbProcNo    6;
    }
    procBoundary7to9
    {
        type            processor;
        inGroups        1(processor);
        nFaces          26;
        startFace       44342;
        matchTolerance  0.0001;
        transform       unknown;
        myProcNo        7;
        neighbProcNo    9;
    }
    procBoundary7to14
    {
        type            processor;
        inGroups        1(processor);
        nFaces          158;
        startFace       44368;
        matchTolerance  0.0001;
        transform       unknown;
        myProcNo        7;
        neighbProcNo    14;
    }
    procBoundary7to15
    {
        type            processor;
        inGroups        1(processor);
        nFaces          47;
        startFace       44526;
        matchTolerance  0.0001;
        transform       unknown;
        myProcNo        7;
        neighbProcNo    15;
    }
)

// ************************************************************************* //
