/*--------------------------------*- C++ -*----------------------------------*\
| =========                 |                                                 |
| \\      /  F ield         | OpenFOAM: The Open Source CFD Toolbox           |
|  \\    /   O peration     | Version:  2412                                  |
|   \\  /    A nd           | Website:  www.openfoam.com                      |
|    \\/     M anipulation  |                                                 |
\*---------------------------------------------------------------------------*/
FoamFile
{
    version     2.0;
    format      ascii;
    arch        "LSB;label=32;scalar=64";
    class       polyBoundaryMesh;
    location    "constant/polyMesh";
    object      boundary;
}
// * * * * * * * * * * * * * * * * * * * * * * * * * * * * * * * * * * * * * //

22
(
    left_1
    {
        type            wall;
        inGroups        1(wall);
        nFaces          0;
        startFace       6935;
    }
    frontAndBack_1
    {
        type            empty;
        inGroups        1(empty);
        nFaces          0;
        startFace       6935;
    }
    top_1
    {
        type            patch;
        nFaces          0;
        startFace       6935;
    }
    bottom_1
    {
        type            wall;
        inGroups        1(wall);
        nFaces          0;
        startFace       6935;
    }
    frontAndBack_2
    {
        type            empty;
        inGroups        1(empty);
        nFaces          6472;
        startFace       6935;
    }
    top_2
    {
        type            patch;
        nFaces          37;
        startFace       13407;
    }
    right_3
    {
        type            wall;
        inGroups        1(wall);
        nFaces          0;
        startFace       13444;
    }
    frontAndBack_3
    {
        type            empty;
        inGroups        1(empty);
        nFaces          560;
        startFace       13444;
    }
    top_3
    {
        type            patch;
        nFaces          5;
        startFace       14004;
    }
    bottom_3
    {
        type            wall;
        inGroups        1(wall);
        nFaces          0;
        startFace       14009;
    }
    left_4
    {
        type            wall;
        inGroups        1(wall);
        nFaces          0;
        startFace       14009;
    }
    right_4
    {
        type            wall;
        inGroups        1(wall);
        nFaces          0;
        startFace       14009;
    }
    frontAndBack_4
    {
        type            empty;
        inGroups        1(empty);
        nFaces          0;
        startFace       14009;
    }
    bottom_4
    {
        type            wall;
        inGroups        1(wall);
        nFaces          0;
        startFace       14009;
    }
    oversetPatch
    {
        type            overset;
        inGroups        1(overset);
        nFaces          0;
        startFace       14009;
    }
    frontAndBack
    {
        type            empty;
        inGroups        1(empty);
        nFaces          0;
        startFace       14009;
    }
    movingObject
    {
        type            wall;
        inGroups        1(wall);
        nFaces          0;
        startFace       14009;
    }
    procBoundary84to80
    {
        type            processor;
        inGroups        1(processor);
        nFaces          34;
        startFace       14009;
        matchTolerance  0.0001;
        transform       unknown;
        myProcNo        84;
        neighbProcNo    80;
    }
    procBoundary84to82
    {
        type            processor;
        inGroups        1(processor);
        nFaces          64;
        startFace       14043;
        matchTolerance  0.0001;
        transform       unknown;
        myProcNo        84;
        neighbProcNo    82;
    }
    procBoundary84to83
    {
        type            processor;
        inGroups        1(processor);
        nFaces          48;
        startFace       14107;
        matchTolerance  0.0001;
        transform       unknown;
        myProcNo        84;
        neighbProcNo    83;
    }
    procBoundary84to85
    {
        type            processor;
        inGroups        1(processor);
        nFaces          44;
        startFace       14155;
        matchTolerance  0.0001;
        transform       unknown;
        myProcNo        84;
        neighbProcNo    85;
    }
    procBoundary84to86
    {
        type            processor;
        inGroups        1(processor);
        nFaces          13;
        startFace       14199;
        matchTolerance  0.0001;
        transform       unknown;
        myProcNo        84;
        neighbProcNo    86;
    }
)

// ************************************************************************* //
