/*--------------------------------*- C++ -*----------------------------------*\
| =========                 |                                                 |
| \\      /  F ield         | OpenFOAM: The Open Source CFD Toolbox           |
|  \\    /   O peration     | Version:  2412                                  |
|   \\  /    A nd           | Website:  www.openfoam.com                      |
|    \\/     M anipulation  |                                                 |
\*---------------------------------------------------------------------------*/
FoamFile
{
    version     2.0;
    format      ascii;
    arch        "LSB;label=32;scalar=64";
    class       polyBoundaryMesh;
    location    "constant/polyMesh";
    object      boundary;
}
// * * * * * * * * * * * * * * * * * * * * * * * * * * * * * * * * * * * * * //

25
(
    left_1
    {
        type            wall;
        inGroups        1(wall);
        nFaces          0;
        startFace       6787;
    }
    frontAndBack_1
    {
        type            empty;
        inGroups        1(empty);
        nFaces          6670;
        startFace       6787;
    }
    top_1
    {
        type            patch;
        nFaces          0;
        startFace       13457;
    }
    bottom_1
    {
        type            wall;
        inGroups        1(wall);
        nFaces          0;
        startFace       13457;
    }
    frontAndBack_2
    {
        type            empty;
        inGroups        1(empty);
        nFaces          262;
        startFace       13457;
    }
    top_2
    {
        type            patch;
        nFaces          0;
        startFace       13719;
    }
    right_3
    {
        type            wall;
        inGroups        1(wall);
        nFaces          0;
        startFace       13719;
    }
    frontAndBack_3
    {
        type            empty;
        inGroups        1(empty);
        nFaces          0;
        startFace       13719;
    }
    top_3
    {
        type            patch;
        nFaces          0;
        startFace       13719;
    }
    bottom_3
    {
        type            wall;
        inGroups        1(wall);
        nFaces          0;
        startFace       13719;
    }
    left_4
    {
        type            wall;
        inGroups        1(wall);
        nFaces          0;
        startFace       13719;
    }
    right_4
    {
        type            wall;
        inGroups        1(wall);
        nFaces          0;
        startFace       13719;
    }
    frontAndBack_4
    {
        type            empty;
        inGroups        1(empty);
        nFaces          0;
        startFace       13719;
    }
    bottom_4
    {
        type            wall;
        inGroups        1(wall);
        nFaces          0;
        startFace       13719;
    }
    oversetPatch
    {
        type            overset;
        inGroups        1(overset);
        nFaces          0;
        startFace       13719;
    }
    frontAndBack
    {
        type            empty;
        inGroups        1(empty);
        nFaces          0;
        startFace       13719;
    }
    movingObject
    {
        type            wall;
        inGroups        1(wall);
        nFaces          0;
        startFace       13719;
    }
    procBoundary40to32
    {
        type            processor;
        inGroups        1(processor);
        nFaces          15;
        startFace       13719;
        matchTolerance  0.0001;
        transform       unknown;
        myProcNo        40;
        neighbProcNo    32;
    }
    procBoundary40to33
    {
        type            processor;
        inGroups        1(processor);
        nFaces          84;
        startFace       13734;
        matchTolerance  0.0001;
        transform       unknown;
        myProcNo        40;
        neighbProcNo    33;
    }
    procBoundary40to34
    {
        type            processor;
        inGroups        1(processor);
        nFaces          37;
        startFace       13818;
        matchTolerance  0.0001;
        transform       unknown;
        myProcNo        40;
        neighbProcNo    34;
    }
    procBoundary40to38
    {
        type            processor;
        inGroups        1(processor);
        nFaces          34;
        startFace       13855;
        matchTolerance  0.0001;
        transform       unknown;
        myProcNo        40;
        neighbProcNo    38;
    }
    procBoundary40to41
    {
        type            processor;
        inGroups        1(processor);
        nFaces          49;
        startFace       13889;
        matchTolerance  0.0001;
        transform       unknown;
        myProcNo        40;
        neighbProcNo    41;
    }
    procBoundary40to43
    {
        type            processor;
        inGroups        1(processor);
        nFaces          38;
        startFace       13938;
        matchTolerance  0.0001;
        transform       unknown;
        myProcNo        40;
        neighbProcNo    43;
    }
    procBoundary40to45
    {
        type            processor;
        inGroups        1(processor);
        nFaces          15;
        startFace       13976;
        matchTolerance  0.0001;
        transform       unknown;
        myProcNo        40;
        neighbProcNo    45;
    }
    procBoundary40to46
    {
        type            processor;
        inGroups        1(processor);
        nFaces          30;
        startFace       13991;
        matchTolerance  0.0001;
        transform       unknown;
        myProcNo        40;
        neighbProcNo    46;
    }
)

// ************************************************************************* //
