/*--------------------------------*- C++ -*----------------------------------*\
| =========                 |                                                 |
| \\      /  F ield         | OpenFOAM: The Open Source CFD Toolbox           |
|  \\    /   O peration     | Version:  2406                                  |
|   \\  /    A nd           | Website:  www.openfoam.com                      |
|    \\/     M anipulation  |                                                 |
\*---------------------------------------------------------------------------*/
FoamFile
{
    version     2.0;
    format      ascii;
    arch        "LSB;label=32;scalar=64";
    class       polyBoundaryMesh;
    location    "constant/polyMesh";
    object      boundary;
}
// * * * * * * * * * * * * * * * * * * * * * * * * * * * * * * * * * * * * * //

23
(
    left_1
    {
        type            wall;
        inGroups        1(wall);
        nFaces          0;
        startFace       11867;
    }
    frontAndBack_1
    {
        type            empty;
        inGroups        1(empty);
        nFaces          324;
        startFace       11867;
    }
    top_1
    {
        type            patch;
        nFaces          0;
        startFace       12191;
    }
    bottom_1
    {
        type            wall;
        inGroups        1(wall);
        nFaces          0;
        startFace       12191;
    }
    frontAndBack_2
    {
        type            empty;
        inGroups        1(empty);
        nFaces          11678;
        startFace       12191;
    }
    top_2
    {
        type            patch;
        nFaces          0;
        startFace       23869;
    }
    right_3
    {
        type            wall;
        inGroups        1(wall);
        nFaces          0;
        startFace       23869;
    }
    frontAndBack_3
    {
        type            empty;
        inGroups        1(empty);
        nFaces          0;
        startFace       23869;
    }
    top_3
    {
        type            patch;
        nFaces          0;
        startFace       23869;
    }
    bottom_3
    {
        type            wall;
        inGroups        1(wall);
        nFaces          0;
        startFace       23869;
    }
    left_4
    {
        type            wall;
        inGroups        1(wall);
        nFaces          0;
        startFace       23869;
    }
    right_4
    {
        type            wall;
        inGroups        1(wall);
        nFaces          0;
        startFace       23869;
    }
    frontAndBack_4
    {
        type            empty;
        inGroups        1(empty);
        nFaces          0;
        startFace       23869;
    }
    bottom_4
    {
        type            wall;
        inGroups        1(wall);
        nFaces          0;
        startFace       23869;
    }
    oversetPatch
    {
        type            overset;
        inGroups        1(overset);
        nFaces          0;
        startFace       23869;
    }
    frontAndBack
    {
        type            empty;
        inGroups        1(empty);
        nFaces          0;
        startFace       23869;
    }
    movingObject
    {
        type            wall;
        inGroups        1(wall);
        nFaces          0;
        startFace       23869;
    }
    procBoundary10to0
    {
        type            processor;
        inGroups        1(processor);
        nFaces          54;
        startFace       23869;
        matchTolerance  0.0001;
        transform       unknown;
        myProcNo        10;
        neighbProcNo    0;
    }
    procBoundary10to1
    {
        type            processor;
        inGroups        1(processor);
        nFaces          31;
        startFace       23923;
        matchTolerance  0.0001;
        transform       unknown;
        myProcNo        10;
        neighbProcNo    1;
    }
    procBoundary10to2
    {
        type            processor;
        inGroups        1(processor);
        nFaces          44;
        startFace       23954;
        matchTolerance  0.0001;
        transform       unknown;
        myProcNo        10;
        neighbProcNo    2;
    }
    procBoundary10to3
    {
        type            processor;
        inGroups        1(processor);
        nFaces          18;
        startFace       23998;
        matchTolerance  0.0001;
        transform       unknown;
        myProcNo        10;
        neighbProcNo    3;
    }
    procBoundary10to11
    {
        type            processor;
        inGroups        1(processor);
        nFaces          139;
        startFace       24016;
        matchTolerance  0.0001;
        transform       unknown;
        myProcNo        10;
        neighbProcNo    11;
    }
    procBoundary10to13
    {
        type            processor;
        inGroups        1(processor);
        nFaces          56;
        startFace       24155;
        matchTolerance  0.0001;
        transform       unknown;
        myProcNo        10;
        neighbProcNo    13;
    }
)

// ************************************************************************* //
