/*--------------------------------*- C++ -*----------------------------------*\
| =========                 |                                                 |
| \\      /  F ield         | OpenFOAM: The Open Source CFD Toolbox           |
|  \\    /   O peration     | Version:  2412                                  |
|   \\  /    A nd           | Website:  www.openfoam.com                      |
|    \\/     M anipulation  |                                                 |
\*---------------------------------------------------------------------------*/
FoamFile
{
    version     2.0;
    format      ascii;
    arch        "LSB;label=32;scalar=64";
    class       polyBoundaryMesh;
    location    "constant/polyMesh";
    object      boundary;
}
// * * * * * * * * * * * * * * * * * * * * * * * * * * * * * * * * * * * * * //

20
(
    left_1
    {
        type            wall;
        inGroups        1(wall);
        nFaces          0;
        startFace       6841;
    }
    frontAndBack_1
    {
        type            empty;
        inGroups        1(empty);
        nFaces          0;
        startFace       6841;
    }
    top_1
    {
        type            patch;
        nFaces          0;
        startFace       6841;
    }
    bottom_1
    {
        type            wall;
        inGroups        1(wall);
        nFaces          0;
        startFace       6841;
    }
    frontAndBack_2
    {
        type            empty;
        inGroups        1(empty);
        nFaces          0;
        startFace       6841;
    }
    top_2
    {
        type            patch;
        nFaces          0;
        startFace       6841;
    }
    right_3
    {
        type            wall;
        inGroups        1(wall);
        nFaces          72;
        startFace       6841;
    }
    frontAndBack_3
    {
        type            empty;
        inGroups        1(empty);
        nFaces          6970;
        startFace       6913;
    }
    top_3
    {
        type            patch;
        nFaces          0;
        startFace       13883;
    }
    bottom_3
    {
        type            wall;
        inGroups        1(wall);
        nFaces          0;
        startFace       13883;
    }
    left_4
    {
        type            wall;
        inGroups        1(wall);
        nFaces          0;
        startFace       13883;
    }
    right_4
    {
        type            wall;
        inGroups        1(wall);
        nFaces          0;
        startFace       13883;
    }
    frontAndBack_4
    {
        type            empty;
        inGroups        1(empty);
        nFaces          0;
        startFace       13883;
    }
    bottom_4
    {
        type            wall;
        inGroups        1(wall);
        nFaces          0;
        startFace       13883;
    }
    oversetPatch
    {
        type            overset;
        inGroups        1(overset);
        nFaces          0;
        startFace       13883;
    }
    frontAndBack
    {
        type            empty;
        inGroups        1(empty);
        nFaces          0;
        startFace       13883;
    }
    movingObject
    {
        type            wall;
        inGroups        1(wall);
        nFaces          0;
        startFace       13883;
    }
    procBoundary10to2
    {
        type            processor;
        inGroups        1(processor);
        nFaces          43;
        startFace       13883;
        matchTolerance  0.0001;
        transform       unknown;
        myProcNo        10;
        neighbProcNo    2;
    }
    procBoundary10to9
    {
        type            processor;
        inGroups        1(processor);
        nFaces          66;
        startFace       13926;
        matchTolerance  0.0001;
        transform       unknown;
        myProcNo        10;
        neighbProcNo    9;
    }
    procBoundary10to11
    {
        type            processor;
        inGroups        1(processor);
        nFaces          77;
        startFace       13992;
        matchTolerance  0.0001;
        transform       unknown;
        myProcNo        10;
        neighbProcNo    11;
    }
)

// ************************************************************************* //
