/*--------------------------------*- C++ -*----------------------------------*\
| =========                 |                                                 |
| \\      /  F ield         | OpenFOAM: The Open Source CFD Toolbox           |
|  \\    /   O peration     | Version:  2412                                  |
|   \\  /    A nd           | Website:  www.openfoam.com                      |
|    \\/     M anipulation  |                                                 |
\*---------------------------------------------------------------------------*/
FoamFile
{
    version     2.0;
    format      ascii;
    arch        "LSB;label=32;scalar=64";
    class       polyBoundaryMesh;
    location    "constant/polyMesh";
    object      boundary;
}
// * * * * * * * * * * * * * * * * * * * * * * * * * * * * * * * * * * * * * //

3
(
    oversetPatch
    {
        type            overset;
        nFaces          588;
        startFace       3266;
        faces           ( ( 2 6 5 1 ) ( 0 4 7 3 ) ( 1 5 4 0 ) ( 2 3 7 6 ) );
    }
    frontAndBack
    {
        type            empty;
        inGroups        1(empty);
        nFaces          3840;
        startFace       3854;
    }
    movingObject
    {
        type            wall;
        inGroups        1(wall);
        nFaces          560;
        startFace       7694;
    }
)

// ************************************************************************* //
