/*--------------------------------*- C++ -*----------------------------------*\
| =========                 |                                                 |
| \\      /  F ield         | OpenFOAM: The Open Source CFD Toolbox           |
|  \\    /   O peration     | Version:  2406                                  |
|   \\  /    A nd           | Website:  www.openfoam.com                      |
|    \\/     M anipulation  |                                                 |
\*---------------------------------------------------------------------------*/
FoamFile
{
    version     2.0;
    format      ascii;
    arch        "LSB;label=32;scalar=64";
    class       polyBoundaryMesh;
    location    "constant/polyMesh";
    object      boundary;
}
// * * * * * * * * * * * * * * * * * * * * * * * * * * * * * * * * * * * * * //

3
(
    oversetPatch
    {
        type            overset;
        nFaces          588;
        startFace       2880;
        faces           ( ( 2 6 5 1 ) ( 0 4 7 3 ) ( 1 5 4 0 ) ( 2 3 7 6 ) );
    }
    frontAndBack
    {
        type            empty;
        inGroups        1(empty);
        nFaces          3456;
        startFace       3468;
    }
    movingObject
    {
        type            wall;
        inGroups        1(wall);
        nFaces          564;
        startFace       6924;
    }
)

// ************************************************************************* //
