/*--------------------------------*- C++ -*----------------------------------*\
| =========                 |                                                 |
| \\      /  F ield         | OpenFOAM: The Open Source CFD Toolbox           |
|  \\    /   O peration     | Version:  2412                                  |
|   \\  /    A nd           | Website:  www.openfoam.com                      |
|    \\/     M anipulation  |                                                 |
\*---------------------------------------------------------------------------*/
FoamFile
{
    version     2.0;
    format      ascii;
    arch        "LSB;label=32;scalar=64";
    class       polyBoundaryMesh;
    location    "constant/polyMesh";
    object      boundary;
}
// * * * * * * * * * * * * * * * * * * * * * * * * * * * * * * * * * * * * * //

21
(
    left_1
    {
        type            wall;
        inGroups        1(wall);
        nFaces          0;
        startFace       6795;
    }
    frontAndBack_1
    {
        type            empty;
        inGroups        1(empty);
        nFaces          0;
        startFace       6795;
    }
    top_1
    {
        type            patch;
        nFaces          0;
        startFace       6795;
    }
    bottom_1
    {
        type            wall;
        inGroups        1(wall);
        nFaces          0;
        startFace       6795;
    }
    frontAndBack_2
    {
        type            empty;
        inGroups        1(empty);
        nFaces          0;
        startFace       6795;
    }
    top_2
    {
        type            patch;
        nFaces          0;
        startFace       6795;
    }
    right_3
    {
        type            wall;
        inGroups        1(wall);
        nFaces          94;
        startFace       6795;
    }
    frontAndBack_3
    {
        type            empty;
        inGroups        1(empty);
        nFaces          6942;
        startFace       6889;
    }
    top_3
    {
        type            patch;
        nFaces          0;
        startFace       13831;
    }
    bottom_3
    {
        type            wall;
        inGroups        1(wall);
        nFaces          0;
        startFace       13831;
    }
    left_4
    {
        type            wall;
        inGroups        1(wall);
        nFaces          0;
        startFace       13831;
    }
    right_4
    {
        type            wall;
        inGroups        1(wall);
        nFaces          0;
        startFace       13831;
    }
    frontAndBack_4
    {
        type            empty;
        inGroups        1(empty);
        nFaces          0;
        startFace       13831;
    }
    bottom_4
    {
        type            wall;
        inGroups        1(wall);
        nFaces          0;
        startFace       13831;
    }
    oversetPatch
    {
        type            overset;
        inGroups        1(overset);
        nFaces          0;
        startFace       13831;
    }
    frontAndBack
    {
        type            empty;
        inGroups        1(empty);
        nFaces          0;
        startFace       13831;
    }
    movingObject
    {
        type            wall;
        inGroups        1(wall);
        nFaces          0;
        startFace       13831;
    }
    procBoundary73to64
    {
        type            processor;
        inGroups        1(processor);
        nFaces          54;
        startFace       13831;
        matchTolerance  0.0001;
        transform       unknown;
        myProcNo        73;
        neighbProcNo    64;
    }
    procBoundary73to69
    {
        type            processor;
        inGroups        1(processor);
        nFaces          54;
        startFace       13885;
        matchTolerance  0.0001;
        transform       unknown;
        myProcNo        73;
        neighbProcNo    69;
    }
    procBoundary73to71
    {
        type            processor;
        inGroups        1(processor);
        nFaces          14;
        startFace       13939;
        matchTolerance  0.0001;
        transform       unknown;
        myProcNo        73;
        neighbProcNo    71;
    }
    procBoundary73to74
    {
        type            processor;
        inGroups        1(processor);
        nFaces          78;
        startFace       13953;
        matchTolerance  0.0001;
        transform       unknown;
        myProcNo        73;
        neighbProcNo    74;
    }
)

// ************************************************************************* //
