/*--------------------------------*- C++ -*----------------------------------*\
| =========                 |                                                 |
| \\      /  F ield         | OpenFOAM: The Open Source CFD Toolbox           |
|  \\    /   O peration     | Version:  2406                                  |
|   \\  /    A nd           | Website:  www.openfoam.com                      |
|    \\/     M anipulation  |                                                 |
\*---------------------------------------------------------------------------*/
FoamFile
{
    version     2.0;
    format      ascii;
    arch        "LSB;label=32;scalar=64";
    class       polyBoundaryMesh;
    location    "constant/polyMesh";
    object      boundary;
}
// * * * * * * * * * * * * * * * * * * * * * * * * * * * * * * * * * * * * * //

23
(
    left_1
    {
        type            wall;
        inGroups        1(wall);
        nFaces          0;
        startFace       11794;
    }
    frontAndBack_1
    {
        type            empty;
        inGroups        1(empty);
        nFaces          1154;
        startFace       11794;
    }
    top_1
    {
        type            patch;
        nFaces          0;
        startFace       12948;
    }
    bottom_1
    {
        type            wall;
        inGroups        1(wall);
        nFaces          0;
        startFace       12948;
    }
    frontAndBack_2
    {
        type            empty;
        inGroups        1(empty);
        nFaces          10762;
        startFace       12948;
    }
    top_2
    {
        type            patch;
        nFaces          0;
        startFace       23710;
    }
    right_3
    {
        type            wall;
        inGroups        1(wall);
        nFaces          0;
        startFace       23710;
    }
    frontAndBack_3
    {
        type            empty;
        inGroups        1(empty);
        nFaces          0;
        startFace       23710;
    }
    top_3
    {
        type            patch;
        nFaces          0;
        startFace       23710;
    }
    bottom_3
    {
        type            wall;
        inGroups        1(wall);
        nFaces          0;
        startFace       23710;
    }
    left_4
    {
        type            wall;
        inGroups        1(wall);
        nFaces          0;
        startFace       23710;
    }
    right_4
    {
        type            wall;
        inGroups        1(wall);
        nFaces          0;
        startFace       23710;
    }
    frontAndBack_4
    {
        type            empty;
        inGroups        1(empty);
        nFaces          0;
        startFace       23710;
    }
    bottom_4
    {
        type            wall;
        inGroups        1(wall);
        nFaces          0;
        startFace       23710;
    }
    oversetPatch
    {
        type            overset;
        inGroups        1(overset);
        nFaces          0;
        startFace       23710;
    }
    frontAndBack
    {
        type            empty;
        inGroups        1(empty);
        nFaces          0;
        startFace       23710;
    }
    movingObject
    {
        type            wall;
        inGroups        1(wall);
        nFaces          0;
        startFace       23710;
    }
    procBoundary15to0
    {
        type            processor;
        inGroups        1(processor);
        nFaces          22;
        startFace       23710;
        matchTolerance  0.0001;
        transform       unknown;
        myProcNo        15;
        neighbProcNo    0;
    }
    procBoundary15to12
    {
        type            processor;
        inGroups        1(processor);
        nFaces          65;
        startFace       23732;
        matchTolerance  0.0001;
        transform       unknown;
        myProcNo        15;
        neighbProcNo    12;
    }
    procBoundary15to13
    {
        type            processor;
        inGroups        1(processor);
        nFaces          12;
        startFace       23797;
        matchTolerance  0.0001;
        transform       unknown;
        myProcNo        15;
        neighbProcNo    13;
    }
    procBoundary15to14
    {
        type            processor;
        inGroups        1(processor);
        nFaces          129;
        startFace       23809;
        matchTolerance  0.0001;
        transform       unknown;
        myProcNo        15;
        neighbProcNo    14;
    }
    procBoundary15to16
    {
        type            processor;
        inGroups        1(processor);
        nFaces          34;
        startFace       23938;
        matchTolerance  0.0001;
        transform       unknown;
        myProcNo        15;
        neighbProcNo    16;
    }
    procBoundary15to30
    {
        type            processor;
        inGroups        1(processor);
        nFaces          63;
        startFace       23972;
        matchTolerance  0.0001;
        transform       unknown;
        myProcNo        15;
        neighbProcNo    30;
    }
)

// ************************************************************************* //
