/*--------------------------------*- C++ -*----------------------------------*\
| =========                 |                                                 |
| \\      /  F ield         | OpenFOAM: The Open Source CFD Toolbox           |
|  \\    /   O peration     | Version:  2406                                  |
|   \\  /    A nd           | Website:  www.openfoam.com                      |
|    \\/     M anipulation  |                                                 |
\*---------------------------------------------------------------------------*/
FoamFile
{
    version     2.0;
    format      ascii;
    arch        "LSB;label=32;scalar=64";
    class       polyBoundaryMesh;
    location    "constant/polyMesh";
    object      boundary;
}
// * * * * * * * * * * * * * * * * * * * * * * * * * * * * * * * * * * * * * //

25
(
    left_1
    {
        type            wall;
        inGroups        1(wall);
        nFaces          0;
        startFace       21785;
    }
    frontAndBack_1
    {
        type            empty;
        inGroups        1(empty);
        nFaces          22014;
        startFace       21785;
    }
    top_1
    {
        type            patch;
        nFaces          0;
        startFace       43799;
    }
    bottom_1
    {
        type            wall;
        inGroups        1(wall);
        nFaces          0;
        startFace       43799;
    }
    frontAndBack_2
    {
        type            empty;
        inGroups        1(empty);
        nFaces          0;
        startFace       43799;
    }
    top_2
    {
        type            patch;
        nFaces          0;
        startFace       43799;
    }
    right_3
    {
        type            wall;
        inGroups        1(wall);
        nFaces          0;
        startFace       43799;
    }
    frontAndBack_3
    {
        type            empty;
        inGroups        1(empty);
        nFaces          0;
        startFace       43799;
    }
    top_3
    {
        type            patch;
        nFaces          0;
        startFace       43799;
    }
    bottom_3
    {
        type            wall;
        inGroups        1(wall);
        nFaces          0;
        startFace       43799;
    }
    left_4
    {
        type            wall;
        inGroups        1(wall);
        nFaces          0;
        startFace       43799;
    }
    right_4
    {
        type            wall;
        inGroups        1(wall);
        nFaces          0;
        startFace       43799;
    }
    frontAndBack_4
    {
        type            empty;
        inGroups        1(empty);
        nFaces          0;
        startFace       43799;
    }
    bottom_4
    {
        type            wall;
        inGroups        1(wall);
        nFaces          0;
        startFace       43799;
    }
    oversetPatch
    {
        type            overset;
        inGroups        1(overset);
        nFaces          0;
        startFace       43799;
    }
    frontAndBack
    {
        type            empty;
        inGroups        1(empty);
        nFaces          0;
        startFace       43799;
    }
    movingObject
    {
        type            wall;
        inGroups        1(wall);
        nFaces          0;
        startFace       43799;
    }
    procBoundary15to8
    {
        type            processor;
        inGroups        1(processor);
        nFaces          31;
        startFace       43799;
        matchTolerance  0.0001;
        transform       unknown;
        myProcNo        15;
        neighbProcNo    8;
    }
    procBoundary15to9
    {
        type            processor;
        inGroups        1(processor);
        nFaces          42;
        startFace       43830;
        matchTolerance  0.0001;
        transform       unknown;
        myProcNo        15;
        neighbProcNo    9;
    }
    procBoundary15to10
    {
        type            processor;
        inGroups        1(processor);
        nFaces          38;
        startFace       43872;
        matchTolerance  0.0001;
        transform       unknown;
        myProcNo        15;
        neighbProcNo    10;
    }
    procBoundary15to11
    {
        type            processor;
        inGroups        1(processor);
        nFaces          41;
        startFace       43910;
        matchTolerance  0.0001;
        transform       unknown;
        myProcNo        15;
        neighbProcNo    11;
    }
    procBoundary15to13
    {
        type            processor;
        inGroups        1(processor);
        nFaces          68;
        startFace       43951;
        matchTolerance  0.0001;
        transform       unknown;
        myProcNo        15;
        neighbProcNo    13;
    }
    procBoundary15to14
    {
        type            processor;
        inGroups        1(processor);
        nFaces          134;
        startFace       44019;
        matchTolerance  0.0001;
        transform       unknown;
        myProcNo        15;
        neighbProcNo    14;
    }
    procBoundary15to16
    {
        type            processor;
        inGroups        1(processor);
        nFaces          100;
        startFace       44153;
        matchTolerance  0.0001;
        transform       unknown;
        myProcNo        15;
        neighbProcNo    16;
    }
    procBoundary15to17
    {
        type            processor;
        inGroups        1(processor);
        nFaces          4;
        startFace       44253;
        matchTolerance  0.0001;
        transform       unknown;
        myProcNo        15;
        neighbProcNo    17;
    }
)

// ************************************************************************* //
