/*--------------------------------*- C++ -*----------------------------------*\
| =========                 |                                                 |
| \\      /  F ield         | OpenFOAM: The Open Source CFD Toolbox           |
|  \\    /   O peration     | Version:  2412                                  |
|   \\  /    A nd           | Website:  www.openfoam.com                      |
|    \\/     M anipulation  |                                                 |
\*---------------------------------------------------------------------------*/
FoamFile
{
    version     2.0;
    format      ascii;
    arch        "LSB;label=32;scalar=64";
    class       polyBoundaryMesh;
    location    "constant/polyMesh";
    object      boundary;
}
// * * * * * * * * * * * * * * * * * * * * * * * * * * * * * * * * * * * * * //

23
(
    left_1
    {
        type            wall;
        inGroups        1(wall);
        nFaces          0;
        startFace       6855;
    }
    frontAndBack_1
    {
        type            empty;
        inGroups        1(empty);
        nFaces          0;
        startFace       6855;
    }
    top_1
    {
        type            patch;
        nFaces          0;
        startFace       6855;
    }
    bottom_1
    {
        type            wall;
        inGroups        1(wall);
        nFaces          0;
        startFace       6855;
    }
    frontAndBack_2
    {
        type            empty;
        inGroups        1(empty);
        nFaces          0;
        startFace       6855;
    }
    top_2
    {
        type            patch;
        nFaces          0;
        startFace       6855;
    }
    right_3
    {
        type            wall;
        inGroups        1(wall);
        nFaces          0;
        startFace       6855;
    }
    frontAndBack_3
    {
        type            empty;
        inGroups        1(empty);
        nFaces          6996;
        startFace       6855;
    }
    top_3
    {
        type            patch;
        nFaces          0;
        startFace       13851;
    }
    bottom_3
    {
        type            wall;
        inGroups        1(wall);
        nFaces          0;
        startFace       13851;
    }
    left_4
    {
        type            wall;
        inGroups        1(wall);
        nFaces          0;
        startFace       13851;
    }
    right_4
    {
        type            wall;
        inGroups        1(wall);
        nFaces          0;
        startFace       13851;
    }
    frontAndBack_4
    {
        type            empty;
        inGroups        1(empty);
        nFaces          0;
        startFace       13851;
    }
    bottom_4
    {
        type            wall;
        inGroups        1(wall);
        nFaces          0;
        startFace       13851;
    }
    oversetPatch
    {
        type            overset;
        inGroups        1(overset);
        nFaces          0;
        startFace       13851;
    }
    frontAndBack
    {
        type            empty;
        inGroups        1(empty);
        nFaces          0;
        startFace       13851;
    }
    movingObject
    {
        type            wall;
        inGroups        1(wall);
        nFaces          0;
        startFace       13851;
    }
    procBoundary11to2
    {
        type            processor;
        inGroups        1(processor);
        nFaces          48;
        startFace       13851;
        matchTolerance  0.0001;
        transform       unknown;
        myProcNo        11;
        neighbProcNo    2;
    }
    procBoundary11to4
    {
        type            processor;
        inGroups        1(processor);
        nFaces          23;
        startFace       13899;
        matchTolerance  0.0001;
        transform       unknown;
        myProcNo        11;
        neighbProcNo    4;
    }
    procBoundary11to7
    {
        type            processor;
        inGroups        1(processor);
        nFaces          55;
        startFace       13922;
        matchTolerance  0.0001;
        transform       unknown;
        myProcNo        11;
        neighbProcNo    7;
    }
    procBoundary11to8
    {
        type            processor;
        inGroups        1(processor);
        nFaces          49;
        startFace       13977;
        matchTolerance  0.0001;
        transform       unknown;
        myProcNo        11;
        neighbProcNo    8;
    }
    procBoundary11to9
    {
        type            processor;
        inGroups        1(processor);
        nFaces          30;
        startFace       14026;
        matchTolerance  0.0001;
        transform       unknown;
        myProcNo        11;
        neighbProcNo    9;
    }
    procBoundary11to10
    {
        type            processor;
        inGroups        1(processor);
        nFaces          77;
        startFace       14056;
        matchTolerance  0.0001;
        transform       unknown;
        myProcNo        11;
        neighbProcNo    10;
    }
)

// ************************************************************************* //
