/*--------------------------------*- C++ -*----------------------------------*\
| =========                 |                                                 |
| \\      /  F ield         | OpenFOAM: The Open Source CFD Toolbox           |
|  \\    /   O peration     | Version:  2406                                  |
|   \\  /    A nd           | Website:  www.openfoam.com                      |
|    \\/     M anipulation  |                                                 |
\*---------------------------------------------------------------------------*/
FoamFile
{
    version     2.0;
    format      ascii;
    arch        "LSB;label=32;scalar=64";
    class       polyBoundaryMesh;
    location    "constant/polyMesh";
    object      boundary;
}
// * * * * * * * * * * * * * * * * * * * * * * * * * * * * * * * * * * * * * //

21
(
    left_1
    {
        type            wall;
        inGroups        1(wall);
        nFaces          0;
        startFace       21742;
    }
    frontAndBack_1
    {
        type            empty;
        inGroups        1(empty);
        nFaces          362;
        startFace       21742;
    }
    top_1
    {
        type            patch;
        nFaces          0;
        startFace       22104;
    }
    bottom_1
    {
        type            wall;
        inGroups        1(wall);
        nFaces          0;
        startFace       22104;
    }
    frontAndBack_2
    {
        type            empty;
        inGroups        1(empty);
        nFaces          20036;
        startFace       22104;
    }
    top_2
    {
        type            patch;
        nFaces          0;
        startFace       42140;
    }
    right_3
    {
        type            wall;
        inGroups        1(wall);
        nFaces          0;
        startFace       42140;
    }
    frontAndBack_3
    {
        type            empty;
        inGroups        1(empty);
        nFaces          1484;
        startFace       42140;
    }
    top_3
    {
        type            patch;
        nFaces          0;
        startFace       43624;
    }
    bottom_3
    {
        type            wall;
        inGroups        1(wall);
        nFaces          0;
        startFace       43624;
    }
    left_4
    {
        type            wall;
        inGroups        1(wall);
        nFaces          0;
        startFace       43624;
    }
    right_4
    {
        type            wall;
        inGroups        1(wall);
        nFaces          0;
        startFace       43624;
    }
    frontAndBack_4
    {
        type            empty;
        inGroups        1(empty);
        nFaces          0;
        startFace       43624;
    }
    bottom_4
    {
        type            wall;
        inGroups        1(wall);
        nFaces          0;
        startFace       43624;
    }
    oversetPatch
    {
        type            overset;
        inGroups        1(overset);
        nFaces          0;
        startFace       43624;
    }
    frontAndBack
    {
        type            empty;
        inGroups        1(empty);
        nFaces          0;
        startFace       43624;
    }
    movingObject
    {
        type            wall;
        inGroups        1(wall);
        nFaces          0;
        startFace       43624;
    }
    procBoundary11to1
    {
        type            processor;
        inGroups        1(processor);
        nFaces          40;
        startFace       43624;
        matchTolerance  0.0001;
        transform       unknown;
        myProcNo        11;
        neighbProcNo    1;
    }
    procBoundary11to9
    {
        type            processor;
        inGroups        1(processor);
        nFaces          134;
        startFace       43664;
        matchTolerance  0.0001;
        transform       unknown;
        myProcNo        11;
        neighbProcNo    9;
    }
    procBoundary11to10
    {
        type            processor;
        inGroups        1(processor);
        nFaces          154;
        startFace       43798;
        matchTolerance  0.0001;
        transform       unknown;
        myProcNo        11;
        neighbProcNo    10;
    }
    procBoundary11to15
    {
        type            processor;
        inGroups        1(processor);
        nFaces          41;
        startFace       43952;
        matchTolerance  0.0001;
        transform       unknown;
        myProcNo        11;
        neighbProcNo    15;
    }
)

// ************************************************************************* //
