/*--------------------------------*- C++ -*----------------------------------*\
| =========                 |                                                 |
| \\      /  F ield         | OpenFOAM: The Open Source CFD Toolbox           |
|  \\    /   O peration     | Version:  2412                                  |
|   \\  /    A nd           | Website:  www.openfoam.com                      |
|    \\/     M anipulation  |                                                 |
\*---------------------------------------------------------------------------*/
FoamFile
{
    version     2.0;
    format      ascii;
    arch        "LSB;label=32;scalar=64";
    class       polyBoundaryMesh;
    location    "constant/polyMesh";
    object      boundary;
}
// * * * * * * * * * * * * * * * * * * * * * * * * * * * * * * * * * * * * * //

23
(
    left_1
    {
        type            wall;
        inGroups        1(wall);
        nFaces          0;
        startFace       6904;
    }
    frontAndBack_1
    {
        type            empty;
        inGroups        1(empty);
        nFaces          7044;
        startFace       6904;
    }
    top_1
    {
        type            patch;
        nFaces          0;
        startFace       13948;
    }
    bottom_1
    {
        type            wall;
        inGroups        1(wall);
        nFaces          0;
        startFace       13948;
    }
    frontAndBack_2
    {
        type            empty;
        inGroups        1(empty);
        nFaces          0;
        startFace       13948;
    }
    top_2
    {
        type            patch;
        nFaces          0;
        startFace       13948;
    }
    right_3
    {
        type            wall;
        inGroups        1(wall);
        nFaces          0;
        startFace       13948;
    }
    frontAndBack_3
    {
        type            empty;
        inGroups        1(empty);
        nFaces          0;
        startFace       13948;
    }
    top_3
    {
        type            patch;
        nFaces          0;
        startFace       13948;
    }
    bottom_3
    {
        type            wall;
        inGroups        1(wall);
        nFaces          0;
        startFace       13948;
    }
    left_4
    {
        type            wall;
        inGroups        1(wall);
        nFaces          0;
        startFace       13948;
    }
    right_4
    {
        type            wall;
        inGroups        1(wall);
        nFaces          0;
        startFace       13948;
    }
    frontAndBack_4
    {
        type            empty;
        inGroups        1(empty);
        nFaces          0;
        startFace       13948;
    }
    bottom_4
    {
        type            wall;
        inGroups        1(wall);
        nFaces          0;
        startFace       13948;
    }
    oversetPatch
    {
        type            overset;
        inGroups        1(overset);
        nFaces          0;
        startFace       13948;
    }
    frontAndBack
    {
        type            empty;
        inGroups        1(empty);
        nFaces          0;
        startFace       13948;
    }
    movingObject
    {
        type            wall;
        inGroups        1(wall);
        nFaces          0;
        startFace       13948;
    }
    procBoundary94to75
    {
        type            processor;
        inGroups        1(processor);
        nFaces          13;
        startFace       13948;
        matchTolerance  0.0001;
        transform       unknown;
        myProcNo        94;
        neighbProcNo    75;
    }
    procBoundary94to78
    {
        type            processor;
        inGroups        1(processor);
        nFaces          28;
        startFace       13961;
        matchTolerance  0.0001;
        transform       unknown;
        myProcNo        94;
        neighbProcNo    78;
    }
    procBoundary94to81
    {
        type            processor;
        inGroups        1(processor);
        nFaces          57;
        startFace       13989;
        matchTolerance  0.0001;
        transform       unknown;
        myProcNo        94;
        neighbProcNo    81;
    }
    procBoundary94to95
    {
        type            processor;
        inGroups        1(processor);
        nFaces          58;
        startFace       14046;
        matchTolerance  0.0001;
        transform       unknown;
        myProcNo        94;
        neighbProcNo    95;
    }
    procBoundary94to96
    {
        type            processor;
        inGroups        1(processor);
        nFaces          76;
        startFace       14104;
        matchTolerance  0.0001;
        transform       unknown;
        myProcNo        94;
        neighbProcNo    96;
    }
    procBoundary94to98
    {
        type            processor;
        inGroups        1(processor);
        nFaces          48;
        startFace       14180;
        matchTolerance  0.0001;
        transform       unknown;
        myProcNo        94;
        neighbProcNo    98;
    }
)

// ************************************************************************* //
