/*--------------------------------*- C++ -*----------------------------------*\
| =========                 |                                                 |
| \\      /  F ield         | OpenFOAM: The Open Source CFD Toolbox           |
|  \\    /   O peration     | Version:  2412                                  |
|   \\  /    A nd           | Website:  www.openfoam.com                      |
|    \\/     M anipulation  |                                                 |
\*---------------------------------------------------------------------------*/
FoamFile
{
    version     2.0;
    format      ascii;
    arch        "LSB;label=32;scalar=64";
    class       polyBoundaryMesh;
    location    "constant/polyMesh";
    object      boundary;
}
// * * * * * * * * * * * * * * * * * * * * * * * * * * * * * * * * * * * * * //

23
(
    left_1
    {
        type            wall;
        inGroups        1(wall);
        nFaces          0;
        startFace       21787;
    }
    frontAndBack_1
    {
        type            empty;
        inGroups        1(empty);
        nFaces          1596;
        startFace       21787;
    }
    top_1
    {
        type            patch;
        nFaces          0;
        startFace       23383;
    }
    bottom_1
    {
        type            wall;
        inGroups        1(wall);
        nFaces          0;
        startFace       23383;
    }
    frontAndBack_2
    {
        type            empty;
        inGroups        1(empty);
        nFaces          19572;
        startFace       23383;
    }
    top_2
    {
        type            patch;
        nFaces          0;
        startFace       42955;
    }
    right_3
    {
        type            wall;
        inGroups        1(wall);
        nFaces          0;
        startFace       42955;
    }
    frontAndBack_3
    {
        type            empty;
        inGroups        1(empty);
        nFaces          772;
        startFace       42955;
    }
    top_3
    {
        type            patch;
        nFaces          0;
        startFace       43727;
    }
    bottom_3
    {
        type            wall;
        inGroups        1(wall);
        nFaces          0;
        startFace       43727;
    }
    left_4
    {
        type            wall;
        inGroups        1(wall);
        nFaces          0;
        startFace       43727;
    }
    right_4
    {
        type            wall;
        inGroups        1(wall);
        nFaces          0;
        startFace       43727;
    }
    frontAndBack_4
    {
        type            empty;
        inGroups        1(empty);
        nFaces          0;
        startFace       43727;
    }
    bottom_4
    {
        type            wall;
        inGroups        1(wall);
        nFaces          0;
        startFace       43727;
    }
    oversetPatch
    {
        type            overset;
        inGroups        1(overset);
        nFaces          0;
        startFace       43727;
    }
    frontAndBack
    {
        type            empty;
        inGroups        1(empty);
        nFaces          0;
        startFace       43727;
    }
    movingObject
    {
        type            wall;
        inGroups        1(wall);
        nFaces          0;
        startFace       43727;
    }
    procBoundary27to21
    {
        type            processor;
        inGroups        1(processor);
        nFaces          57;
        startFace       43727;
        matchTolerance  0.0001;
        transform       unknown;
        myProcNo        27;
        neighbProcNo    21;
    }
    procBoundary27to22
    {
        type            processor;
        inGroups        1(processor);
        nFaces          10;
        startFace       43784;
        matchTolerance  0.0001;
        transform       unknown;
        myProcNo        27;
        neighbProcNo    22;
    }
    procBoundary27to25
    {
        type            processor;
        inGroups        1(processor);
        nFaces          140;
        startFace       43794;
        matchTolerance  0.0001;
        transform       unknown;
        myProcNo        27;
        neighbProcNo    25;
    }
    procBoundary27to26
    {
        type            processor;
        inGroups        1(processor);
        nFaces          133;
        startFace       43934;
        matchTolerance  0.0001;
        transform       unknown;
        myProcNo        27;
        neighbProcNo    26;
    }
    procBoundary27to29
    {
        type            processor;
        inGroups        1(processor);
        nFaces          27;
        startFace       44067;
        matchTolerance  0.0001;
        transform       unknown;
        myProcNo        27;
        neighbProcNo    29;
    }
    procBoundary27to31
    {
        type            processor;
        inGroups        1(processor);
        nFaces          29;
        startFace       44094;
        matchTolerance  0.0001;
        transform       unknown;
        myProcNo        27;
        neighbProcNo    31;
    }
)

// ************************************************************************* //
