/*--------------------------------*- C++ -*----------------------------------*\
| =========                 |                                                 |
| \\      /  F ield         | OpenFOAM: The Open Source CFD Toolbox           |
|  \\    /   O peration     | Version:  2412                                  |
|   \\  /    A nd           | Website:  www.openfoam.com                      |
|    \\/     M anipulation  |                                                 |
\*---------------------------------------------------------------------------*/
FoamFile
{
    version     2.0;
    format      ascii;
    arch        "LSB;label=32;scalar=64";
    class       polyBoundaryMesh;
    location    "constant/polyMesh";
    object      boundary;
}
// * * * * * * * * * * * * * * * * * * * * * * * * * * * * * * * * * * * * * //

22
(
    left_1
    {
        type            wall;
        inGroups        1(wall);
        nFaces          0;
        startFace       6792;
    }
    frontAndBack_1
    {
        type            empty;
        inGroups        1(empty);
        nFaces          0;
        startFace       6792;
    }
    top_1
    {
        type            patch;
        nFaces          0;
        startFace       6792;
    }
    bottom_1
    {
        type            wall;
        inGroups        1(wall);
        nFaces          0;
        startFace       6792;
    }
    frontAndBack_2
    {
        type            empty;
        inGroups        1(empty);
        nFaces          6656;
        startFace       6792;
    }
    top_2
    {
        type            patch;
        nFaces          0;
        startFace       13448;
    }
    right_3
    {
        type            wall;
        inGroups        1(wall);
        nFaces          0;
        startFace       13448;
    }
    frontAndBack_3
    {
        type            empty;
        inGroups        1(empty);
        nFaces          254;
        startFace       13448;
    }
    top_3
    {
        type            patch;
        nFaces          0;
        startFace       13702;
    }
    bottom_3
    {
        type            wall;
        inGroups        1(wall);
        nFaces          0;
        startFace       13702;
    }
    left_4
    {
        type            wall;
        inGroups        1(wall);
        nFaces          0;
        startFace       13702;
    }
    right_4
    {
        type            wall;
        inGroups        1(wall);
        nFaces          0;
        startFace       13702;
    }
    frontAndBack_4
    {
        type            empty;
        inGroups        1(empty);
        nFaces          0;
        startFace       13702;
    }
    bottom_4
    {
        type            wall;
        inGroups        1(wall);
        nFaces          0;
        startFace       13702;
    }
    oversetPatch
    {
        type            overset;
        inGroups        1(overset);
        nFaces          0;
        startFace       13702;
    }
    frontAndBack
    {
        type            empty;
        inGroups        1(empty);
        nFaces          0;
        startFace       13702;
    }
    movingObject
    {
        type            wall;
        inGroups        1(wall);
        nFaces          0;
        startFace       13702;
    }
    procBoundary53to50
    {
        type            processor;
        inGroups        1(processor);
        nFaces          24;
        startFace       13702;
        matchTolerance  0.0001;
        transform       unknown;
        myProcNo        53;
        neighbProcNo    50;
    }
    procBoundary53to52
    {
        type            processor;
        inGroups        1(processor);
        nFaces          35;
        startFace       13726;
        matchTolerance  0.0001;
        transform       unknown;
        myProcNo        53;
        neighbProcNo    52;
    }
    procBoundary53to54
    {
        type            processor;
        inGroups        1(processor);
        nFaces          83;
        startFace       13761;
        matchTolerance  0.0001;
        transform       unknown;
        myProcNo        53;
        neighbProcNo    54;
    }
    procBoundary53to58
    {
        type            processor;
        inGroups        1(processor);
        nFaces          39;
        startFace       13844;
        matchTolerance  0.0001;
        transform       unknown;
        myProcNo        53;
        neighbProcNo    58;
    }
    procBoundary53to59
    {
        type            processor;
        inGroups        1(processor);
        nFaces          79;
        startFace       13883;
        matchTolerance  0.0001;
        transform       unknown;
        myProcNo        53;
        neighbProcNo    59;
    }
)

// ************************************************************************* //
