/*--------------------------------*- C++ -*----------------------------------*\
| =========                 |                                                 |
| \\      /  F ield         | OpenFOAM: The Open Source CFD Toolbox           |
|  \\    /   O peration     | Version:  2412                                  |
|   \\  /    A nd           | Website:  www.openfoam.com                      |
|    \\/     M anipulation  |                                                 |
\*---------------------------------------------------------------------------*/
FoamFile
{
    version     2.0;
    format      ascii;
    arch        "LSB;label=32;scalar=64";
    class       polyBoundaryMesh;
    location    "constant/polyMesh";
    object      boundary;
}
// * * * * * * * * * * * * * * * * * * * * * * * * * * * * * * * * * * * * * //

23
(
    left_1
    {
        type            wall;
        inGroups        1(wall);
        nFaces          0;
        startFace       6925;
    }
    frontAndBack_1
    {
        type            empty;
        inGroups        1(empty);
        nFaces          862;
        startFace       6925;
    }
    top_1
    {
        type            patch;
        nFaces          0;
        startFace       7787;
    }
    bottom_1
    {
        type            wall;
        inGroups        1(wall);
        nFaces          0;
        startFace       7787;
    }
    frontAndBack_2
    {
        type            empty;
        inGroups        1(empty);
        nFaces          6182;
        startFace       7787;
    }
    top_2
    {
        type            patch;
        nFaces          0;
        startFace       13969;
    }
    right_3
    {
        type            wall;
        inGroups        1(wall);
        nFaces          0;
        startFace       13969;
    }
    frontAndBack_3
    {
        type            empty;
        inGroups        1(empty);
        nFaces          0;
        startFace       13969;
    }
    top_3
    {
        type            patch;
        nFaces          0;
        startFace       13969;
    }
    bottom_3
    {
        type            wall;
        inGroups        1(wall);
        nFaces          0;
        startFace       13969;
    }
    left_4
    {
        type            wall;
        inGroups        1(wall);
        nFaces          0;
        startFace       13969;
    }
    right_4
    {
        type            wall;
        inGroups        1(wall);
        nFaces          0;
        startFace       13969;
    }
    frontAndBack_4
    {
        type            empty;
        inGroups        1(empty);
        nFaces          0;
        startFace       13969;
    }
    bottom_4
    {
        type            wall;
        inGroups        1(wall);
        nFaces          0;
        startFace       13969;
    }
    oversetPatch
    {
        type            overset;
        inGroups        1(overset);
        nFaces          0;
        startFace       13969;
    }
    frontAndBack
    {
        type            empty;
        inGroups        1(empty);
        nFaces          0;
        startFace       13969;
    }
    movingObject
    {
        type            wall;
        inGroups        1(wall);
        nFaces          0;
        startFace       13969;
    }
    procBoundary55to51
    {
        type            processor;
        inGroups        1(processor);
        nFaces          38;
        startFace       13969;
        matchTolerance  0.0001;
        transform       unknown;
        myProcNo        55;
        neighbProcNo    51;
    }
    procBoundary55to52
    {
        type            processor;
        inGroups        1(processor);
        nFaces          32;
        startFace       14007;
        matchTolerance  0.0001;
        transform       unknown;
        myProcNo        55;
        neighbProcNo    52;
    }
    procBoundary55to54
    {
        type            processor;
        inGroups        1(processor);
        nFaces          79;
        startFace       14039;
        matchTolerance  0.0001;
        transform       unknown;
        myProcNo        55;
        neighbProcNo    54;
    }
    procBoundary55to60
    {
        type            processor;
        inGroups        1(processor);
        nFaces          16;
        startFace       14118;
        matchTolerance  0.0001;
        transform       unknown;
        myProcNo        55;
        neighbProcNo    60;
    }
    procBoundary55to89
    {
        type            processor;
        inGroups        1(processor);
        nFaces          23;
        startFace       14134;
        matchTolerance  0.0001;
        transform       unknown;
        myProcNo        55;
        neighbProcNo    89;
    }
    procBoundary55to93
    {
        type            processor;
        inGroups        1(processor);
        nFaces          76;
        startFace       14157;
        matchTolerance  0.0001;
        transform       unknown;
        myProcNo        55;
        neighbProcNo    93;
    }
)

// ************************************************************************* //
