/*--------------------------------*- C++ -*----------------------------------*\
| =========                 |                                                 |
| \\      /  F ield         | OpenFOAM: The Open Source CFD Toolbox           |
|  \\    /   O peration     | Version:  2412                                  |
|   \\  /    A nd           | Website:  www.openfoam.com                      |
|    \\/     M anipulation  |                                                 |
\*---------------------------------------------------------------------------*/
FoamFile
{
    version     2.0;
    format      ascii;
    arch        "LSB;label=32;scalar=64";
    class       polyBoundaryMesh;
    location    "constant/polyMesh";
    object      boundary;
}
// * * * * * * * * * * * * * * * * * * * * * * * * * * * * * * * * * * * * * //

24
(
    left_1
    {
        type            wall;
        inGroups        1(wall);
        nFaces          0;
        startFace       6940;
    }
    frontAndBack_1
    {
        type            empty;
        inGroups        1(empty);
        nFaces          7106;
        startFace       6940;
    }
    top_1
    {
        type            patch;
        nFaces          0;
        startFace       14046;
    }
    bottom_1
    {
        type            wall;
        inGroups        1(wall);
        nFaces          0;
        startFace       14046;
    }
    frontAndBack_2
    {
        type            empty;
        inGroups        1(empty);
        nFaces          0;
        startFace       14046;
    }
    top_2
    {
        type            patch;
        nFaces          0;
        startFace       14046;
    }
    right_3
    {
        type            wall;
        inGroups        1(wall);
        nFaces          0;
        startFace       14046;
    }
    frontAndBack_3
    {
        type            empty;
        inGroups        1(empty);
        nFaces          0;
        startFace       14046;
    }
    top_3
    {
        type            patch;
        nFaces          0;
        startFace       14046;
    }
    bottom_3
    {
        type            wall;
        inGroups        1(wall);
        nFaces          0;
        startFace       14046;
    }
    left_4
    {
        type            wall;
        inGroups        1(wall);
        nFaces          0;
        startFace       14046;
    }
    right_4
    {
        type            wall;
        inGroups        1(wall);
        nFaces          0;
        startFace       14046;
    }
    frontAndBack_4
    {
        type            empty;
        inGroups        1(empty);
        nFaces          0;
        startFace       14046;
    }
    bottom_4
    {
        type            wall;
        inGroups        1(wall);
        nFaces          0;
        startFace       14046;
    }
    oversetPatch
    {
        type            overset;
        inGroups        1(overset);
        nFaces          0;
        startFace       14046;
    }
    frontAndBack
    {
        type            empty;
        inGroups        1(empty);
        nFaces          0;
        startFace       14046;
    }
    movingObject
    {
        type            wall;
        inGroups        1(wall);
        nFaces          0;
        startFace       14046;
    }
    procBoundary34to32
    {
        type            processor;
        inGroups        1(processor);
        nFaces          23;
        startFace       14046;
        matchTolerance  0.0001;
        transform       unknown;
        myProcNo        34;
        neighbProcNo    32;
    }
    procBoundary34to35
    {
        type            processor;
        inGroups        1(processor);
        nFaces          49;
        startFace       14069;
        matchTolerance  0.0001;
        transform       unknown;
        myProcNo        34;
        neighbProcNo    35;
    }
    procBoundary34to36
    {
        type            processor;
        inGroups        1(processor);
        nFaces          42;
        startFace       14118;
        matchTolerance  0.0001;
        transform       unknown;
        myProcNo        34;
        neighbProcNo    36;
    }
    procBoundary34to40
    {
        type            processor;
        inGroups        1(processor);
        nFaces          37;
        startFace       14160;
        matchTolerance  0.0001;
        transform       unknown;
        myProcNo        34;
        neighbProcNo    40;
    }
    procBoundary34to43
    {
        type            processor;
        inGroups        1(processor);
        nFaces          93;
        startFace       14197;
        matchTolerance  0.0001;
        transform       unknown;
        myProcNo        34;
        neighbProcNo    43;
    }
    procBoundary34to60
    {
        type            processor;
        inGroups        1(processor);
        nFaces          6;
        startFace       14290;
        matchTolerance  0.0001;
        transform       unknown;
        myProcNo        34;
        neighbProcNo    60;
    }
    procBoundary34to91
    {
        type            processor;
        inGroups        1(processor);
        nFaces          82;
        startFace       14296;
        matchTolerance  0.0001;
        transform       unknown;
        myProcNo        34;
        neighbProcNo    91;
    }
)

// ************************************************************************* //
