/*--------------------------------*- C++ -*----------------------------------*\
| =========                 |                                                 |
| \\      /  F ield         | OpenFOAM: The Open Source CFD Toolbox           |
|  \\    /   O peration     | Version:  2406                                  |
|   \\  /    A nd           | Website:  www.openfoam.com                      |
|    \\/     M anipulation  |                                                 |
\*---------------------------------------------------------------------------*/
FoamFile
{
    version     2.0;
    format      ascii;
    arch        "LSB;label=32;scalar=64";
    class       polyBoundaryMesh;
    location    "constant/polyMesh";
    object      boundary;
}
// * * * * * * * * * * * * * * * * * * * * * * * * * * * * * * * * * * * * * //

17
(
    left_1
    {
        type            wall;
        inGroups        1(wall);
        nFaces          300;
        startFace       384526;
    }
    frontAndBack_1
    {
        type            empty;
        inGroups        1(empty);
        nFaces          52200;
        startFace       384826;
    }
    top_1
    {
        type            patch;
        nFaces          87;
        startFace       437026;
    }
    bottom_1
    {
        type            wall;
        inGroups        1(wall);
        nFaces          87;
        startFace       437113;
    }
    frontAndBack_2
    {
        type            empty;
        inGroups        1(empty);
        nFaces          249600;
        startFace       437200;
    }
    top_2
    {
        type            patch;
        nFaces          104;
        startFace       686800;
    }
    right_3
    {
        type            wall;
        inGroups        1(wall);
        nFaces          300;
        startFace       686904;
    }
    frontAndBack_3
    {
        type            empty;
        inGroups        1(empty);
        nFaces          52200;
        startFace       687204;
    }
    top_3
    {
        type            patch;
        nFaces          87;
        startFace       739404;
    }
    bottom_3
    {
        type            wall;
        inGroups        1(wall);
        nFaces          87;
        startFace       739491;
    }
    left_4
    {
        type            wall;
        inGroups        1(wall);
        nFaces          132;
        startFace       739578;
    }
    right_4
    {
        type            wall;
        inGroups        1(wall);
        nFaces          132;
        startFace       739710;
    }
    frontAndBack_4
    {
        type            empty;
        inGroups        1(empty);
        nFaces          27456;
        startFace       739842;
    }
    bottom_4
    {
        type            wall;
        inGroups        1(wall);
        nFaces          104;
        startFace       767298;
    }
    oversetPatch
    {
        type            overset;
        inGroups        1(overset);
        nFaces          588;
        startFace       767402;
    }
    frontAndBack
    {
        type            empty;
        inGroups        1(empty);
        nFaces          3456;
        startFace       767990;
    }
    movingObject
    {
        type            wall;
        inGroups        1(wall);
        nFaces          564;
        startFace       771446;
    }
)

// ************************************************************************* //
