FoamFile
{
    version     2.0;
    format      ascii;
    class       dictionary;
    object      blockMeshDict;
}
convertToMeters 1.0;

vertices
(
    (3   0       -2   )  // vertex 0 : +x
    (0     3    -2   )  // vertex 1 : +z
    (-3  0       -2   )  // vertex 2 : -x
    (0      -3   -2   )  // vertex 3 : -z

    (3   0       4   )  // vertex 4
    (0      3    4   )  // vertex 5
    (-3  0       4   )  // vertex 6
    (0      -3   4   )  // vertex 7

    (0      0       -2   )  // 중심 (bottom)
    (0      0       4   )  // 중심 (top)
);

blocks
(
    hex (0  1   8   8   4   5   9   9   ) (60   60  60) simpleGrading (1 1 1)
    hex (1  2   8   8   5   6   9   9   ) (60   60  60) simpleGrading (1 1 1)
    hex (2  3   8   8   6   7   9   9   ) (60   60  60) simpleGrading (1 1 1)
    hex (3  0   8   8   7   4   9   9   ) (60   60  60) simpleGrading (1 1 1)
);

edges
(
    //  정확한 곡선 중간점 (radius = 0.75, 45도 방향)
    //  0.75 * cos(45°) ≈ 0.5303

    // bottom face arcs (y = -1.8)
    arc 0 1 ( 2.1213   2.1213  -2   )
    arc 1 2 (-2.1213   2.1213  -2   )
    arc 2 3 (-2.1213  -2.1213  -2   )
    arc 3 0 ( 2.1213  -2.1213  -2   )

    // top face arcs (y = 5)
    arc 4 5 ( 2.1213   2.1213  4   )
    arc 5 6 (-2.1213   2.1213  4   )
    arc 6 7 (-2.1213  -2.1213  4   )
    arc 7 4 ( 2.1213  -2.1213  4   )
);

boundary
(
    walls
    {
        type wall;
        faces
        (
            (0  8   8   1)
            (1  8   8   2)
            (2  8   8   3)
            (3  8   8   0)
            (5  9   9   4)
            (6  9   9   5)
            (7  9   9   6)
            (4  9   9   7)
            (0  1   5   4)
            (1  2   5   6)
            (2  3   7   6)
            (3  0   4   7)
        );
    }
   
);

mergePatchPairs();
