/*--------------------------------*- C++ -*----------------------------------*\
| =========                 |                                                 |
| \\      /  F ield         | OpenFOAM: The Open Source CFD Toolbox           |
|  \\    /   O peration     | Version:  v1906                                 |
|   \\  /    A nd           | Web:      www.OpenFOAM.com                      |
|    \\/     M anipulation  |                                                 |
\*---------------------------------------------------------------------------*/
FoamFile
{
    version     2.0;
    format      ascii;
    class       dictionary;
    location    "system";
    object      topoSetDict;
}
// * * * * * * * * * * * * * * * * * * * * * * * * * * * * * * * * * * * * * //

X0	-1.0;
Y0	-40;
Z0	-0.2;

X1	1.0;
Y1	40;
Z1	0.2;

actions
(
    {
        name    a0;
        type    cellSet;
        action  new;
        source  boxToCell;
        box     ($X0 $Y0 $Z0) ($X1 $Y1 $Z1);
    }
);

// ************************************************************************* //
