/*--------------------------------*- C++ -*----------------------------------*\
| =========                 |                                                 |
| \\      /  F ield         | OpenFOAM: The Open Source CFD Toolbox           |
|  \\    /   O peration     | Version:  2412                                  |
|   \\  /    A nd           | Website:  www.openfoam.com                      |
|    \\/     M anipulation  |                                                 |
\*---------------------------------------------------------------------------*/
FoamFile
{
    version     2.0;
    format      ascii;
    arch        "LSB;label=32;scalar=64";
    class       polyBoundaryMesh;
    location    "constant/polyMesh";
    object      boundary;
}
// * * * * * * * * * * * * * * * * * * * * * * * * * * * * * * * * * * * * * //

24
(
    left_1
    {
        type            wall;
        inGroups        1(wall);
        nFaces          0;
        startFace       6914;
    }
    frontAndBack_1
    {
        type            empty;
        inGroups        1(empty);
        nFaces          0;
        startFace       6914;
    }
    top_1
    {
        type            patch;
        nFaces          0;
        startFace       6914;
    }
    bottom_1
    {
        type            wall;
        inGroups        1(wall);
        nFaces          0;
        startFace       6914;
    }
    frontAndBack_2
    {
        type            empty;
        inGroups        1(empty);
        nFaces          0;
        startFace       6914;
    }
    top_2
    {
        type            patch;
        nFaces          0;
        startFace       6914;
    }
    right_3
    {
        type            wall;
        inGroups        1(wall);
        nFaces          0;
        startFace       6914;
    }
    frontAndBack_3
    {
        type            empty;
        inGroups        1(empty);
        nFaces          7046;
        startFace       6914;
    }
    top_3
    {
        type            patch;
        nFaces          0;
        startFace       13960;
    }
    bottom_3
    {
        type            wall;
        inGroups        1(wall);
        nFaces          0;
        startFace       13960;
    }
    left_4
    {
        type            wall;
        inGroups        1(wall);
        nFaces          0;
        startFace       13960;
    }
    right_4
    {
        type            wall;
        inGroups        1(wall);
        nFaces          0;
        startFace       13960;
    }
    frontAndBack_4
    {
        type            empty;
        inGroups        1(empty);
        nFaces          0;
        startFace       13960;
    }
    bottom_4
    {
        type            wall;
        inGroups        1(wall);
        nFaces          0;
        startFace       13960;
    }
    oversetPatch
    {
        type            overset;
        inGroups        1(overset);
        nFaces          0;
        startFace       13960;
    }
    frontAndBack
    {
        type            empty;
        inGroups        1(empty);
        nFaces          0;
        startFace       13960;
    }
    movingObject
    {
        type            wall;
        inGroups        1(wall);
        nFaces          0;
        startFace       13960;
    }
    procBoundary65to44
    {
        type            processor;
        inGroups        1(processor);
        nFaces          18;
        startFace       13960;
        matchTolerance  0.0001;
        transform       unknown;
        myProcNo        65;
        neighbProcNo    44;
    }
    procBoundary65to48
    {
        type            processor;
        inGroups        1(processor);
        nFaces          62;
        startFace       13978;
        matchTolerance  0.0001;
        transform       unknown;
        myProcNo        65;
        neighbProcNo    48;
    }
    procBoundary65to49
    {
        type            processor;
        inGroups        1(processor);
        nFaces          6;
        startFace       14040;
        matchTolerance  0.0001;
        transform       unknown;
        myProcNo        65;
        neighbProcNo    49;
    }
    procBoundary65to57
    {
        type            processor;
        inGroups        1(processor);
        nFaces          39;
        startFace       14046;
        matchTolerance  0.0001;
        transform       unknown;
        myProcNo        65;
        neighbProcNo    57;
    }
    procBoundary65to58
    {
        type            processor;
        inGroups        1(processor);
        nFaces          15;
        startFace       14085;
        matchTolerance  0.0001;
        transform       unknown;
        myProcNo        65;
        neighbProcNo    58;
    }
    procBoundary65to62
    {
        type            processor;
        inGroups        1(processor);
        nFaces          78;
        startFace       14100;
        matchTolerance  0.0001;
        transform       unknown;
        myProcNo        65;
        neighbProcNo    62;
    }
    procBoundary65to67
    {
        type            processor;
        inGroups        1(processor);
        nFaces          46;
        startFace       14178;
        matchTolerance  0.0001;
        transform       unknown;
        myProcNo        65;
        neighbProcNo    67;
    }
)

// ************************************************************************* //
