/*--------------------------------*- C++ -*----------------------------------*\
| =========                 |                                                 |
| \\      /  F ield         | OpenFOAM: The Open Source CFD Toolbox           |
|  \\    /   O peration     | Version:  2412                                  |
|   \\  /    A nd           | Website:  www.openfoam.com                      |
|    \\/     M anipulation  |                                                 |
\*---------------------------------------------------------------------------*/
FoamFile
{
    version     2.0;
    format      ascii;
    arch        "LSB;label=32;scalar=64";
    class       polyBoundaryMesh;
    location    "constant/polyMesh";
    object      boundary;
}
// * * * * * * * * * * * * * * * * * * * * * * * * * * * * * * * * * * * * * //

20
(
    left_1
    {
        type            wall;
        inGroups        1(wall);
        nFaces          74;
        startFace       6829;
    }
    frontAndBack_1
    {
        type            empty;
        inGroups        1(empty);
        nFaces          6970;
        startFace       6903;
    }
    top_1
    {
        type            patch;
        nFaces          0;
        startFace       13873;
    }
    bottom_1
    {
        type            wall;
        inGroups        1(wall);
        nFaces          37;
        startFace       13873;
    }
    frontAndBack_2
    {
        type            empty;
        inGroups        1(empty);
        nFaces          0;
        startFace       13910;
    }
    top_2
    {
        type            patch;
        nFaces          0;
        startFace       13910;
    }
    right_3
    {
        type            wall;
        inGroups        1(wall);
        nFaces          0;
        startFace       13910;
    }
    frontAndBack_3
    {
        type            empty;
        inGroups        1(empty);
        nFaces          0;
        startFace       13910;
    }
    top_3
    {
        type            patch;
        nFaces          0;
        startFace       13910;
    }
    bottom_3
    {
        type            wall;
        inGroups        1(wall);
        nFaces          0;
        startFace       13910;
    }
    left_4
    {
        type            wall;
        inGroups        1(wall);
        nFaces          0;
        startFace       13910;
    }
    right_4
    {
        type            wall;
        inGroups        1(wall);
        nFaces          0;
        startFace       13910;
    }
    frontAndBack_4
    {
        type            empty;
        inGroups        1(empty);
        nFaces          0;
        startFace       13910;
    }
    bottom_4
    {
        type            wall;
        inGroups        1(wall);
        nFaces          0;
        startFace       13910;
    }
    oversetPatch
    {
        type            overset;
        inGroups        1(overset);
        nFaces          0;
        startFace       13910;
    }
    frontAndBack
    {
        type            empty;
        inGroups        1(empty);
        nFaces          0;
        startFace       13910;
    }
    movingObject
    {
        type            wall;
        inGroups        1(wall);
        nFaces          0;
        startFace       13910;
    }
    procBoundary26to27
    {
        type            processor;
        inGroups        1(processor);
        nFaces          96;
        startFace       13910;
        matchTolerance  0.0001;
        transform       unknown;
        myProcNo        26;
        neighbProcNo    27;
    }
    procBoundary26to28
    {
        type            processor;
        inGroups        1(processor);
        nFaces          52;
        startFace       14006;
        matchTolerance  0.0001;
        transform       unknown;
        myProcNo        26;
        neighbProcNo    28;
    }
    procBoundary26to29
    {
        type            processor;
        inGroups        1(processor);
        nFaces          23;
        startFace       14058;
        matchTolerance  0.0001;
        transform       unknown;
        myProcNo        26;
        neighbProcNo    29;
    }
)

// ************************************************************************* //
