/*--------------------------------*- C++ -*----------------------------------*\
| =========                 |                                                 |
| \\      /  F ield         | OpenFOAM: The Open Source CFD Toolbox           |
|  \\    /   O peration     | Version:  2406                                  |
|   \\  /    A nd           | Website:  www.openfoam.com                      |
|    \\/     M anipulation  |                                                 |
\*---------------------------------------------------------------------------*/
FoamFile
{
    version     2.0;
    format      ascii;
    arch        "LSB;label=32;scalar=64";
    class       polyBoundaryMesh;
    location    "constant/polyMesh";
    object      boundary;
}
// * * * * * * * * * * * * * * * * * * * * * * * * * * * * * * * * * * * * * //

22
(
    left_1
    {
        type            wall;
        inGroups        1(wall);
        nFaces          0;
        startFace       11838;
    }
    frontAndBack_1
    {
        type            empty;
        inGroups        1(empty);
        nFaces          120;
        startFace       11838;
    }
    top_1
    {
        type            patch;
        nFaces          0;
        startFace       11958;
    }
    bottom_1
    {
        type            wall;
        inGroups        1(wall);
        nFaces          0;
        startFace       11958;
    }
    frontAndBack_2
    {
        type            empty;
        inGroups        1(empty);
        nFaces          11836;
        startFace       11958;
    }
    top_2
    {
        type            patch;
        nFaces          0;
        startFace       23794;
    }
    right_3
    {
        type            wall;
        inGroups        1(wall);
        nFaces          0;
        startFace       23794;
    }
    frontAndBack_3
    {
        type            empty;
        inGroups        1(empty);
        nFaces          0;
        startFace       23794;
    }
    top_3
    {
        type            patch;
        nFaces          0;
        startFace       23794;
    }
    bottom_3
    {
        type            wall;
        inGroups        1(wall);
        nFaces          0;
        startFace       23794;
    }
    left_4
    {
        type            wall;
        inGroups        1(wall);
        nFaces          0;
        startFace       23794;
    }
    right_4
    {
        type            wall;
        inGroups        1(wall);
        nFaces          0;
        startFace       23794;
    }
    frontAndBack_4
    {
        type            empty;
        inGroups        1(empty);
        nFaces          0;
        startFace       23794;
    }
    bottom_4
    {
        type            wall;
        inGroups        1(wall);
        nFaces          0;
        startFace       23794;
    }
    oversetPatch
    {
        type            overset;
        inGroups        1(overset);
        nFaces          0;
        startFace       23794;
    }
    frontAndBack
    {
        type            empty;
        inGroups        1(empty);
        nFaces          0;
        startFace       23794;
    }
    movingObject
    {
        type            wall;
        inGroups        1(wall);
        nFaces          0;
        startFace       23794;
    }
    procBoundary26to16
    {
        type            processor;
        inGroups        1(processor);
        nFaces          25;
        startFace       23794;
        matchTolerance  0.0001;
        transform       unknown;
        myProcNo        26;
        neighbProcNo    16;
    }
    procBoundary26to25
    {
        type            processor;
        inGroups        1(processor);
        nFaces          61;
        startFace       23819;
        matchTolerance  0.0001;
        transform       unknown;
        myProcNo        26;
        neighbProcNo    25;
    }
    procBoundary26to27
    {
        type            processor;
        inGroups        1(processor);
        nFaces          136;
        startFace       23880;
        matchTolerance  0.0001;
        transform       unknown;
        myProcNo        26;
        neighbProcNo    27;
    }
    procBoundary26to30
    {
        type            processor;
        inGroups        1(processor);
        nFaces          73;
        startFace       24016;
        matchTolerance  0.0001;
        transform       unknown;
        myProcNo        26;
        neighbProcNo    30;
    }
    procBoundary26to31
    {
        type            processor;
        inGroups        1(processor);
        nFaces          13;
        startFace       24089;
        matchTolerance  0.0001;
        transform       unknown;
        myProcNo        26;
        neighbProcNo    31;
    }
)

// ************************************************************************* //
