/*--------------------------------*- C++ -*----------------------------------*\
| =========                 |                                                 |
| \\      /  F ield         | OpenFOAM: The Open Source CFD Toolbox           |
|  \\    /   O peration     | Version:  2412                                  |
|   \\  /    A nd           | Website:  www.openfoam.com                      |
|    \\/     M anipulation  |                                                 |
\*---------------------------------------------------------------------------*/
FoamFile
{
    version     2.0;
    format      ascii;
    arch        "LSB;label=32;scalar=64";
    class       polyBoundaryMesh;
    location    "constant/polyMesh";
    object      boundary;
}
// * * * * * * * * * * * * * * * * * * * * * * * * * * * * * * * * * * * * * //

23
(
    left_1
    {
        type            wall;
        inGroups        1(wall);
        nFaces          0;
        startFace       6843;
    }
    frontAndBack_1
    {
        type            empty;
        inGroups        1(empty);
        nFaces          0;
        startFace       6843;
    }
    top_1
    {
        type            patch;
        nFaces          0;
        startFace       6843;
    }
    bottom_1
    {
        type            wall;
        inGroups        1(wall);
        nFaces          0;
        startFace       6843;
    }
    frontAndBack_2
    {
        type            empty;
        inGroups        1(empty);
        nFaces          0;
        startFace       6843;
    }
    top_2
    {
        type            patch;
        nFaces          0;
        startFace       6843;
    }
    right_3
    {
        type            wall;
        inGroups        1(wall);
        nFaces          0;
        startFace       6843;
    }
    frontAndBack_3
    {
        type            empty;
        inGroups        1(empty);
        nFaces          6976;
        startFace       6843;
    }
    top_3
    {
        type            patch;
        nFaces          0;
        startFace       13819;
    }
    bottom_3
    {
        type            wall;
        inGroups        1(wall);
        nFaces          0;
        startFace       13819;
    }
    left_4
    {
        type            wall;
        inGroups        1(wall);
        nFaces          0;
        startFace       13819;
    }
    right_4
    {
        type            wall;
        inGroups        1(wall);
        nFaces          0;
        startFace       13819;
    }
    frontAndBack_4
    {
        type            empty;
        inGroups        1(empty);
        nFaces          0;
        startFace       13819;
    }
    bottom_4
    {
        type            wall;
        inGroups        1(wall);
        nFaces          0;
        startFace       13819;
    }
    oversetPatch
    {
        type            overset;
        inGroups        1(overset);
        nFaces          0;
        startFace       13819;
    }
    frontAndBack
    {
        type            empty;
        inGroups        1(empty);
        nFaces          0;
        startFace       13819;
    }
    movingObject
    {
        type            wall;
        inGroups        1(wall);
        nFaces          0;
        startFace       13819;
    }
    procBoundary72to50
    {
        type            processor;
        inGroups        1(processor);
        nFaces          28;
        startFace       13819;
        matchTolerance  0.0001;
        transform       unknown;
        myProcNo        72;
        neighbProcNo    50;
    }
    procBoundary72to51
    {
        type            processor;
        inGroups        1(processor);
        nFaces          28;
        startFace       13847;
        matchTolerance  0.0001;
        transform       unknown;
        myProcNo        72;
        neighbProcNo    51;
    }
    procBoundary72to52
    {
        type            processor;
        inGroups        1(processor);
        nFaces          18;
        startFace       13875;
        matchTolerance  0.0001;
        transform       unknown;
        myProcNo        72;
        neighbProcNo    52;
    }
    procBoundary72to71
    {
        type            processor;
        inGroups        1(processor);
        nFaces          83;
        startFace       13893;
        matchTolerance  0.0001;
        transform       unknown;
        myProcNo        72;
        neighbProcNo    71;
    }
    procBoundary72to74
    {
        type            processor;
        inGroups        1(processor);
        nFaces          82;
        startFace       13976;
        matchTolerance  0.0001;
        transform       unknown;
        myProcNo        72;
        neighbProcNo    74;
    }
    procBoundary72to76
    {
        type            processor;
        inGroups        1(processor);
        nFaces          27;
        startFace       14058;
        matchTolerance  0.0001;
        transform       unknown;
        myProcNo        72;
        neighbProcNo    76;
    }
)

// ************************************************************************* //
