/*--------------------------------*- C++ -*----------------------------------*\
| =========                 |                                                 |
| \\      /  F ield         | OpenFOAM: The Open Source CFD Toolbox           |
|  \\    /   O peration     | Version:  2406                                  |
|   \\  /    A nd           | Website:  www.openfoam.com                      |
|    \\/     M anipulation  |                                                 |
\*---------------------------------------------------------------------------*/
FoamFile
{
    version     2.0;
    format      ascii;
    arch        "LSB;label=32;scalar=64";
    class       polyBoundaryMesh;
    location    "constant/polyMesh";
    object      boundary;
}
// * * * * * * * * * * * * * * * * * * * * * * * * * * * * * * * * * * * * * //

23
(
    left_1
    {
        type            wall;
        inGroups        1(wall);
        nFaces          0;
        startFace       11975;
    }
    frontAndBack_1
    {
        type            empty;
        inGroups        1(empty);
        nFaces          206;
        startFace       11975;
    }
    top_1
    {
        type            patch;
        nFaces          0;
        startFace       12181;
    }
    bottom_1
    {
        type            wall;
        inGroups        1(wall);
        nFaces          0;
        startFace       12181;
    }
    frontAndBack_2
    {
        type            empty;
        inGroups        1(empty);
        nFaces          11848;
        startFace       12181;
    }
    top_2
    {
        type            patch;
        nFaces          0;
        startFace       24029;
    }
    right_3
    {
        type            wall;
        inGroups        1(wall);
        nFaces          0;
        startFace       24029;
    }
    frontAndBack_3
    {
        type            empty;
        inGroups        1(empty);
        nFaces          28;
        startFace       24029;
    }
    top_3
    {
        type            patch;
        nFaces          0;
        startFace       24057;
    }
    bottom_3
    {
        type            wall;
        inGroups        1(wall);
        nFaces          0;
        startFace       24057;
    }
    left_4
    {
        type            wall;
        inGroups        1(wall);
        nFaces          0;
        startFace       24057;
    }
    right_4
    {
        type            wall;
        inGroups        1(wall);
        nFaces          0;
        startFace       24057;
    }
    frontAndBack_4
    {
        type            empty;
        inGroups        1(empty);
        nFaces          0;
        startFace       24057;
    }
    bottom_4
    {
        type            wall;
        inGroups        1(wall);
        nFaces          0;
        startFace       24057;
    }
    oversetPatch
    {
        type            overset;
        inGroups        1(overset);
        nFaces          0;
        startFace       24057;
    }
    frontAndBack
    {
        type            empty;
        inGroups        1(empty);
        nFaces          0;
        startFace       24057;
    }
    movingObject
    {
        type            wall;
        inGroups        1(wall);
        nFaces          0;
        startFace       24057;
    }
    procBoundary25to16
    {
        type            processor;
        inGroups        1(processor);
        nFaces          14;
        startFace       24057;
        matchTolerance  0.0001;
        transform       unknown;
        myProcNo        25;
        neighbProcNo    16;
    }
    procBoundary25to17
    {
        type            processor;
        inGroups        1(processor);
        nFaces          8;
        startFace       24071;
        matchTolerance  0.0001;
        transform       unknown;
        myProcNo        25;
        neighbProcNo    17;
    }
    procBoundary25to24
    {
        type            processor;
        inGroups        1(processor);
        nFaces          125;
        startFace       24079;
        matchTolerance  0.0001;
        transform       unknown;
        myProcNo        25;
        neighbProcNo    24;
    }
    procBoundary25to26
    {
        type            processor;
        inGroups        1(processor);
        nFaces          61;
        startFace       24204;
        matchTolerance  0.0001;
        transform       unknown;
        myProcNo        25;
        neighbProcNo    26;
    }
    procBoundary25to27
    {
        type            processor;
        inGroups        1(processor);
        nFaces          75;
        startFace       24265;
        matchTolerance  0.0001;
        transform       unknown;
        myProcNo        25;
        neighbProcNo    27;
    }
    procBoundary25to28
    {
        type            processor;
        inGroups        1(processor);
        nFaces          12;
        startFace       24340;
        matchTolerance  0.0001;
        transform       unknown;
        myProcNo        25;
        neighbProcNo    28;
    }
)

// ************************************************************************* //
