/*--------------------------------*- C++ -*----------------------------------*\
| =========                 |                                                 |
| \\      /  F ield         | OpenFOAM: The Open Source CFD Toolbox           |
|  \\    /   O peration     | Version:  2412                                  |
|   \\  /    A nd           | Website:  www.openfoam.com                      |
|    \\/     M anipulation  |                                                 |
\*---------------------------------------------------------------------------*/
FoamFile
{
    version     2.0;
    format      ascii;
    arch        "LSB;label=32;scalar=64";
    class       polyBoundaryMesh;
    location    "constant/polyMesh";
    object      boundary;
}
// * * * * * * * * * * * * * * * * * * * * * * * * * * * * * * * * * * * * * //

21
(
    left_1
    {
        type            wall;
        inGroups        1(wall);
        nFaces          0;
        startFace       21788;
    }
    frontAndBack_1
    {
        type            empty;
        inGroups        1(empty);
        nFaces          1020;
        startFace       21788;
    }
    top_1
    {
        type            patch;
        nFaces          0;
        startFace       22808;
    }
    bottom_1
    {
        type            wall;
        inGroups        1(wall);
        nFaces          0;
        startFace       22808;
    }
    frontAndBack_2
    {
        type            empty;
        inGroups        1(empty);
        nFaces          20016;
        startFace       22808;
    }
    top_2
    {
        type            patch;
        nFaces          0;
        startFace       42824;
    }
    right_3
    {
        type            wall;
        inGroups        1(wall);
        nFaces          0;
        startFace       42824;
    }
    frontAndBack_3
    {
        type            empty;
        inGroups        1(empty);
        nFaces          900;
        startFace       42824;
    }
    top_3
    {
        type            patch;
        nFaces          0;
        startFace       43724;
    }
    bottom_3
    {
        type            wall;
        inGroups        1(wall);
        nFaces          0;
        startFace       43724;
    }
    left_4
    {
        type            wall;
        inGroups        1(wall);
        nFaces          0;
        startFace       43724;
    }
    right_4
    {
        type            wall;
        inGroups        1(wall);
        nFaces          0;
        startFace       43724;
    }
    frontAndBack_4
    {
        type            empty;
        inGroups        1(empty);
        nFaces          0;
        startFace       43724;
    }
    bottom_4
    {
        type            wall;
        inGroups        1(wall);
        nFaces          0;
        startFace       43724;
    }
    oversetPatch
    {
        type            overset;
        inGroups        1(overset);
        nFaces          0;
        startFace       43724;
    }
    frontAndBack
    {
        type            empty;
        inGroups        1(empty);
        nFaces          0;
        startFace       43724;
    }
    movingObject
    {
        type            wall;
        inGroups        1(wall);
        nFaces          0;
        startFace       43724;
    }
    procBoundary25to21
    {
        type            processor;
        inGroups        1(processor);
        nFaces          54;
        startFace       43724;
        matchTolerance  0.0001;
        transform       unknown;
        myProcNo        25;
        neighbProcNo    21;
    }
    procBoundary25to24
    {
        type            processor;
        inGroups        1(processor);
        nFaces          137;
        startFace       43778;
        matchTolerance  0.0001;
        transform       unknown;
        myProcNo        25;
        neighbProcNo    24;
    }
    procBoundary25to27
    {
        type            processor;
        inGroups        1(processor);
        nFaces          140;
        startFace       43915;
        matchTolerance  0.0001;
        transform       unknown;
        myProcNo        25;
        neighbProcNo    27;
    }
    procBoundary25to31
    {
        type            processor;
        inGroups        1(processor);
        nFaces          62;
        startFace       44055;
        matchTolerance  0.0001;
        transform       unknown;
        myProcNo        25;
        neighbProcNo    31;
    }
)

// ************************************************************************* //
