/*--------------------------------*- C++ -*----------------------------------*\
| =========                 |                                                 |
| \\      /  F ield         | OpenFOAM: The Open Source CFD Toolbox           |
|  \\    /   O peration     | Version:  2412                                  |
|   \\  /    A nd           | Website:  www.openfoam.com                      |
|    \\/     M anipulation  |                                                 |
\*---------------------------------------------------------------------------*/
FoamFile
{
    version     2.0;
    format      ascii;
    arch        "LSB;label=32;scalar=64";
    class       polyBoundaryMesh;
    location    "constant/polyMesh";
    object      boundary;
}
// * * * * * * * * * * * * * * * * * * * * * * * * * * * * * * * * * * * * * //

23
(
    left_1
    {
        type            wall;
        inGroups        1(wall);
        nFaces          70;
        startFace       6900;
    }
    frontAndBack_1
    {
        type            empty;
        inGroups        1(empty);
        nFaces          7030;
        startFace       6970;
    }
    top_1
    {
        type            patch;
        nFaces          0;
        startFace       14000;
    }
    bottom_1
    {
        type            wall;
        inGroups        1(wall);
        nFaces          0;
        startFace       14000;
    }
    frontAndBack_2
    {
        type            empty;
        inGroups        1(empty);
        nFaces          0;
        startFace       14000;
    }
    top_2
    {
        type            patch;
        nFaces          0;
        startFace       14000;
    }
    right_3
    {
        type            wall;
        inGroups        1(wall);
        nFaces          0;
        startFace       14000;
    }
    frontAndBack_3
    {
        type            empty;
        inGroups        1(empty);
        nFaces          0;
        startFace       14000;
    }
    top_3
    {
        type            patch;
        nFaces          0;
        startFace       14000;
    }
    bottom_3
    {
        type            wall;
        inGroups        1(wall);
        nFaces          0;
        startFace       14000;
    }
    left_4
    {
        type            wall;
        inGroups        1(wall);
        nFaces          0;
        startFace       14000;
    }
    right_4
    {
        type            wall;
        inGroups        1(wall);
        nFaces          0;
        startFace       14000;
    }
    frontAndBack_4
    {
        type            empty;
        inGroups        1(empty);
        nFaces          0;
        startFace       14000;
    }
    bottom_4
    {
        type            wall;
        inGroups        1(wall);
        nFaces          0;
        startFace       14000;
    }
    oversetPatch
    {
        type            overset;
        inGroups        1(overset);
        nFaces          0;
        startFace       14000;
    }
    frontAndBack
    {
        type            empty;
        inGroups        1(empty);
        nFaces          0;
        startFace       14000;
    }
    movingObject
    {
        type            wall;
        inGroups        1(wall);
        nFaces          0;
        startFace       14000;
    }
    procBoundary87to88
    {
        type            processor;
        inGroups        1(processor);
        nFaces          40;
        startFace       14000;
        matchTolerance  0.0001;
        transform       unknown;
        myProcNo        87;
        neighbProcNo    88;
    }
    procBoundary87to89
    {
        type            processor;
        inGroups        1(processor);
        nFaces          30;
        startFace       14040;
        matchTolerance  0.0001;
        transform       unknown;
        myProcNo        87;
        neighbProcNo    89;
    }
    procBoundary87to90
    {
        type            processor;
        inGroups        1(processor);
        nFaces          45;
        startFace       14070;
        matchTolerance  0.0001;
        transform       unknown;
        myProcNo        87;
        neighbProcNo    90;
    }
    procBoundary87to92
    {
        type            processor;
        inGroups        1(processor);
        nFaces          12;
        startFace       14115;
        matchTolerance  0.0001;
        transform       unknown;
        myProcNo        87;
        neighbProcNo    92;
    }
    procBoundary87to98
    {
        type            processor;
        inGroups        1(processor);
        nFaces          18;
        startFace       14127;
        matchTolerance  0.0001;
        transform       unknown;
        myProcNo        87;
        neighbProcNo    98;
    }
    procBoundary87to99
    {
        type            processor;
        inGroups        1(processor);
        nFaces          45;
        startFace       14145;
        matchTolerance  0.0001;
        transform       unknown;
        myProcNo        87;
        neighbProcNo    99;
    }
)

// ************************************************************************* //
