/*--------------------------------*- C++ -*----------------------------------*\
| =========                 |                                                 |
| \\      /  F ield         | OpenFOAM: The Open Source CFD Toolbox           |
|  \\    /   O peration     | Version:  2412                                  |
|   \\  /    A nd           | Website:  www.openfoam.com                      |
|    \\/     M anipulation  |                                                 |
\*---------------------------------------------------------------------------*/
FoamFile
{
    version     2.0;
    format      ascii;
    arch        "LSB;label=32;scalar=64";
    class       polyBoundaryMesh;
    location    "constant/polyMesh";
    object      boundary;
}
// * * * * * * * * * * * * * * * * * * * * * * * * * * * * * * * * * * * * * //

23
(
    left_1
    {
        type            wall;
        inGroups        1(wall);
        nFaces          0;
        startFace       6822;
    }
    frontAndBack_1
    {
        type            empty;
        inGroups        1(empty);
        nFaces          0;
        startFace       6822;
    }
    top_1
    {
        type            patch;
        nFaces          0;
        startFace       6822;
    }
    bottom_1
    {
        type            wall;
        inGroups        1(wall);
        nFaces          0;
        startFace       6822;
    }
    frontAndBack_2
    {
        type            empty;
        inGroups        1(empty);
        nFaces          5686;
        startFace       6822;
    }
    top_2
    {
        type            patch;
        nFaces          0;
        startFace       12508;
    }
    right_3
    {
        type            wall;
        inGroups        1(wall);
        nFaces          0;
        startFace       12508;
    }
    frontAndBack_3
    {
        type            empty;
        inGroups        1(empty);
        nFaces          1254;
        startFace       12508;
    }
    top_3
    {
        type            patch;
        nFaces          0;
        startFace       13762;
    }
    bottom_3
    {
        type            wall;
        inGroups        1(wall);
        nFaces          0;
        startFace       13762;
    }
    left_4
    {
        type            wall;
        inGroups        1(wall);
        nFaces          0;
        startFace       13762;
    }
    right_4
    {
        type            wall;
        inGroups        1(wall);
        nFaces          0;
        startFace       13762;
    }
    frontAndBack_4
    {
        type            empty;
        inGroups        1(empty);
        nFaces          0;
        startFace       13762;
    }
    bottom_4
    {
        type            wall;
        inGroups        1(wall);
        nFaces          0;
        startFace       13762;
    }
    oversetPatch
    {
        type            overset;
        inGroups        1(overset);
        nFaces          0;
        startFace       13762;
    }
    frontAndBack
    {
        type            empty;
        inGroups        1(empty);
        nFaces          0;
        startFace       13762;
    }
    movingObject
    {
        type            wall;
        inGroups        1(wall);
        nFaces          0;
        startFace       13762;
    }
    procBoundary51to52
    {
        type            processor;
        inGroups        1(processor);
        nFaces          74;
        startFace       13762;
        matchTolerance  0.0001;
        transform       unknown;
        myProcNo        51;
        neighbProcNo    52;
    }
    procBoundary51to55
    {
        type            processor;
        inGroups        1(processor);
        nFaces          38;
        startFace       13836;
        matchTolerance  0.0001;
        transform       unknown;
        myProcNo        51;
        neighbProcNo    55;
    }
    procBoundary51to72
    {
        type            processor;
        inGroups        1(processor);
        nFaces          28;
        startFace       13874;
        matchTolerance  0.0001;
        transform       unknown;
        myProcNo        51;
        neighbProcNo    72;
    }
    procBoundary51to76
    {
        type            processor;
        inGroups        1(processor);
        nFaces          21;
        startFace       13902;
        matchTolerance  0.0001;
        transform       unknown;
        myProcNo        51;
        neighbProcNo    76;
    }
    procBoundary51to77
    {
        type            processor;
        inGroups        1(processor);
        nFaces          71;
        startFace       13923;
        matchTolerance  0.0001;
        transform       unknown;
        myProcNo        51;
        neighbProcNo    77;
    }
    procBoundary51to93
    {
        type            processor;
        inGroups        1(processor);
        nFaces          34;
        startFace       13994;
        matchTolerance  0.0001;
        transform       unknown;
        myProcNo        51;
        neighbProcNo    93;
    }
)

// ************************************************************************* //
