/*--------------------------------*- C++ -*----------------------------------*\
| =========                 |                                                 |
| \\      /  F ield         | OpenFOAM: The Open Source CFD Toolbox           |
|  \\    /   O peration     | Version:  2406                                  |
|   \\  /    A nd           | Website:  www.openfoam.com                      |
|    \\/     M anipulation  |                                                 |
\*---------------------------------------------------------------------------*/
FoamFile
{
    version     2.0;
    format      ascii;
    arch        "LSB;label=32;scalar=64";
    class       polyBoundaryMesh;
    location    "constant/polyMesh";
    object      boundary;
}
// * * * * * * * * * * * * * * * * * * * * * * * * * * * * * * * * * * * * * //

23
(
    left_1
    {
        type            wall;
        inGroups        1(wall);
        nFaces          0;
        startFace       21498;
    }
    frontAndBack_1
    {
        type            empty;
        inGroups        1(empty);
        nFaces          728;
        startFace       21498;
    }
    top_1
    {
        type            patch;
        nFaces          0;
        startFace       22226;
    }
    bottom_1
    {
        type            wall;
        inGroups        1(wall);
        nFaces          0;
        startFace       22226;
    }
    frontAndBack_2
    {
        type            empty;
        inGroups        1(empty);
        nFaces          20290;
        startFace       22226;
    }
    top_2
    {
        type            patch;
        nFaces          0;
        startFace       42516;
    }
    right_3
    {
        type            wall;
        inGroups        1(wall);
        nFaces          0;
        startFace       42516;
    }
    frontAndBack_3
    {
        type            empty;
        inGroups        1(empty);
        nFaces          626;
        startFace       42516;
    }
    top_3
    {
        type            patch;
        nFaces          0;
        startFace       43142;
    }
    bottom_3
    {
        type            wall;
        inGroups        1(wall);
        nFaces          0;
        startFace       43142;
    }
    left_4
    {
        type            wall;
        inGroups        1(wall);
        nFaces          0;
        startFace       43142;
    }
    right_4
    {
        type            wall;
        inGroups        1(wall);
        nFaces          0;
        startFace       43142;
    }
    frontAndBack_4
    {
        type            empty;
        inGroups        1(empty);
        nFaces          0;
        startFace       43142;
    }
    bottom_4
    {
        type            wall;
        inGroups        1(wall);
        nFaces          0;
        startFace       43142;
    }
    oversetPatch
    {
        type            overset;
        inGroups        1(overset);
        nFaces          0;
        startFace       43142;
    }
    frontAndBack
    {
        type            empty;
        inGroups        1(empty);
        nFaces          0;
        startFace       43142;
    }
    movingObject
    {
        type            wall;
        inGroups        1(wall);
        nFaces          0;
        startFace       43142;
    }
    procBoundary8to3
    {
        type            processor;
        inGroups        1(processor);
        nFaces          34;
        startFace       43142;
        matchTolerance  0.0001;
        transform       unknown;
        myProcNo        8;
        neighbProcNo    3;
    }
    procBoundary8to6
    {
        type            processor;
        inGroups        1(processor);
        nFaces          65;
        startFace       43176;
        matchTolerance  0.0001;
        transform       unknown;
        myProcNo        8;
        neighbProcNo    6;
    }
    procBoundary8to7
    {
        type            processor;
        inGroups        1(processor);
        nFaces          63;
        startFace       43241;
        matchTolerance  0.0001;
        transform       unknown;
        myProcNo        8;
        neighbProcNo    7;
    }
    procBoundary8to9
    {
        type            processor;
        inGroups        1(processor);
        nFaces          147;
        startFace       43304;
        matchTolerance  0.0001;
        transform       unknown;
        myProcNo        8;
        neighbProcNo    9;
    }
    procBoundary8to13
    {
        type            processor;
        inGroups        1(processor);
        nFaces          42;
        startFace       43451;
        matchTolerance  0.0001;
        transform       unknown;
        myProcNo        8;
        neighbProcNo    13;
    }
    procBoundary8to15
    {
        type            processor;
        inGroups        1(processor);
        nFaces          31;
        startFace       43493;
        matchTolerance  0.0001;
        transform       unknown;
        myProcNo        8;
        neighbProcNo    15;
    }
)

// ************************************************************************* //
