/*--------------------------------*- C++ -*----------------------------------*\
| =========                 |                                                 |
| \\      /  F ield         | OpenFOAM: The Open Source CFD Toolbox           |
|  \\    /   O peration     | Version:  2406                                  |
|   \\  /    A nd           | Website:  www.openfoam.com                      |
|    \\/     M anipulation  |                                                 |
\*---------------------------------------------------------------------------*/
FoamFile
{
    version     2.0;
    format      ascii;
    arch        "LSB;label=32;scalar=64";
    class       polyBoundaryMesh;
    location    "constant/polyMesh";
    object      boundary;
}
// * * * * * * * * * * * * * * * * * * * * * * * * * * * * * * * * * * * * * //

22
(
    left_1
    {
        type            wall;
        inGroups        1(wall);
        nFaces          0;
        startFace       11956;
    }
    frontAndBack_1
    {
        type            empty;
        inGroups        1(empty);
        nFaces          224;
        startFace       11956;
    }
    top_1
    {
        type            patch;
        nFaces          0;
        startFace       12180;
    }
    bottom_1
    {
        type            wall;
        inGroups        1(wall);
        nFaces          0;
        startFace       12180;
    }
    frontAndBack_2
    {
        type            empty;
        inGroups        1(empty);
        nFaces          11832;
        startFace       12180;
    }
    top_2
    {
        type            patch;
        nFaces          0;
        startFace       24012;
    }
    right_3
    {
        type            wall;
        inGroups        1(wall);
        nFaces          0;
        startFace       24012;
    }
    frontAndBack_3
    {
        type            empty;
        inGroups        1(empty);
        nFaces          0;
        startFace       24012;
    }
    top_3
    {
        type            patch;
        nFaces          0;
        startFace       24012;
    }
    bottom_3
    {
        type            wall;
        inGroups        1(wall);
        nFaces          0;
        startFace       24012;
    }
    left_4
    {
        type            wall;
        inGroups        1(wall);
        nFaces          0;
        startFace       24012;
    }
    right_4
    {
        type            wall;
        inGroups        1(wall);
        nFaces          0;
        startFace       24012;
    }
    frontAndBack_4
    {
        type            empty;
        inGroups        1(empty);
        nFaces          0;
        startFace       24012;
    }
    bottom_4
    {
        type            wall;
        inGroups        1(wall);
        nFaces          0;
        startFace       24012;
    }
    oversetPatch
    {
        type            overset;
        inGroups        1(overset);
        nFaces          0;
        startFace       24012;
    }
    frontAndBack
    {
        type            empty;
        inGroups        1(empty);
        nFaces          0;
        startFace       24012;
    }
    movingObject
    {
        type            wall;
        inGroups        1(wall);
        nFaces          0;
        startFace       24012;
    }
    procBoundary30to14
    {
        type            processor;
        inGroups        1(processor);
        nFaces          18;
        startFace       24012;
        matchTolerance  0.0001;
        transform       unknown;
        myProcNo        30;
        neighbProcNo    14;
    }
    procBoundary30to15
    {
        type            processor;
        inGroups        1(processor);
        nFaces          63;
        startFace       24030;
        matchTolerance  0.0001;
        transform       unknown;
        myProcNo        30;
        neighbProcNo    15;
    }
    procBoundary30to16
    {
        type            processor;
        inGroups        1(processor);
        nFaces          31;
        startFace       24093;
        matchTolerance  0.0001;
        transform       unknown;
        myProcNo        30;
        neighbProcNo    16;
    }
    procBoundary30to26
    {
        type            processor;
        inGroups        1(processor);
        nFaces          73;
        startFace       24124;
        matchTolerance  0.0001;
        transform       unknown;
        myProcNo        30;
        neighbProcNo    26;
    }
    procBoundary30to31
    {
        type            processor;
        inGroups        1(processor);
        nFaces          96;
        startFace       24197;
        matchTolerance  0.0001;
        transform       unknown;
        myProcNo        30;
        neighbProcNo    31;
    }
)

// ************************************************************************* //
